 &NAM_ALG_MODES
 MODE      = 1
 /
 &NAM_ALG_INPUT_FILES_PATH
 YFILEINP    = 'data_msg/latlon/HDF5_LSASAF_MSG_LAT_MSG-Disk_201412091000',
 'output-{name}/HDF5_LSASAF_MSG_AL-C1-K012_Disk_20160801',
 'output-{name}/HDF5_LSASAF_MSG_AL-C1-CK_Disk_20160801',
 'output-{name}/HDF5_LSASAF_MSG_AL-C2-K012_Disk_20160801',
 'output-{name}/HDF5_LSASAF_MSG_AL-C2-CK_Disk_20160801',
 'output-{name}/HDF5_LSASAF_MSG_AL-C3-K012_Disk_20160801',
 'output-{name}/HDF5_LSASAF_MSG_AL-C3-CK_Disk_20160801',
 'data_msg/toc-lwcs/BRF-20160802/HDF5_LSASAF_MSG_006-BRF_MSG-Disk_201608020000.h5',
 'data_msg/toc-lwcs/BRF-20160802/HDF5_LSASAF_MSG_008-BRF_MSG-Disk_201608020000.h5',
 'data_msg/toc-lwcs/BRF-20160802/HDF5_LSASAF_MSG_016-BRF_MSG-Disk_201608020000.h5',
 'data_msg/view-angle/ANG-20160802/HDF5_LSASAF_MSG_SAA_MSG-Disk_201608020000.h5',
 'data_msg/view-angle/ANG-20160802/HDF5_LSASAF_MSG_SZA_MSG-Disk_201608020000.h5',
 'data_msg/view-angle/HDF5_LSASAF_MSG_VAA_Disk_201608160000.h5',
 'data_msg/view-angle/HDF5_LSASAF_MSG_VZA_Disk_201608160000.h5',
 'data_msg/toc-lwcs/BRF-20160802/HDF5_LSASAF_MSG_006-BRF_MSG-Disk_201608020015.h5',
 'data_msg/toc-lwcs/BRF-20160802/HDF5_LSASAF_MSG_008-BRF_MSG-Disk_201608020015.h5',
 'data_msg/toc-lwcs/BRF-20160802/HDF5_LSASAF_MSG_016-BRF_MSG-Disk_201608020015.h5',
 'data_msg/view-angle/ANG-20160802/HDF5_LSASAF_MSG_SAA_MSG-Disk_201608020015.h5',
 'data_msg/view-angle/ANG-20160802/HDF5_LSASAF_MSG_SZA_MSG-Disk_201608020015.h5',
 'data_msg/view-angle/HDF5_LSASAF_MSG_VAA_Disk_201608160000.h5',
 'data_msg/view-angle/HDF5_LSASAF_MSG_VZA_Disk_201608160000.h5',
 'data_msg/toc-lwcs/BRF-20160802/HDF5_LSASAF_MSG_006-BRF_MSG-Disk_201608020030.h5',
 'data_msg/toc-lwcs/BRF-20160802/HDF5_LSASAF_MSG_008-BRF_MSG-Disk_201608020030.h5',
 'data_msg/toc-lwcs/BRF-20160802/HDF5_LSASAF_MSG_016-BRF_MSG-Disk_201608020030.h5',
 'data_msg/view-angle/ANG-20160802/HDF5_LSASAF_MSG_SAA_MSG-Disk_201608020030.h5',
 'data_msg/view-angle/ANG-20160802/HDF5_LSASAF_MSG_SZA_MSG-Disk_201608020030.h5',
 'data_msg/view-angle/HDF5_LSASAF_MSG_VAA_Disk_201608160000.h5',
 'data_msg/view-angle/HDF5_LSASAF_MSG_VZA_Disk_201608160000.h5',
 'data_msg/toc-lwcs/BRF-20160802/HDF5_LSASAF_MSG_006-BRF_MSG-Disk_201608020045.h5',
 'data_msg/toc-lwcs/BRF-20160802/HDF5_LSASAF_MSG_008-BRF_MSG-Disk_201608020045.h5',
 'data_msg/toc-lwcs/BRF-20160802/HDF5_LSASAF_MSG_016-BRF_MSG-Disk_201608020045.h5',
 'data_msg/view-angle/ANG-20160802/HDF5_LSASAF_MSG_SAA_MSG-Disk_201608020045.h5',
 'data_msg/view-angle/ANG-20160802/HDF5_LSASAF_MSG_SZA_MSG-Disk_201608020045.h5',
 'data_msg/view-angle/HDF5_LSASAF_MSG_VAA_Disk_201608160000.h5',
 'data_msg/view-angle/HDF5_LSASAF_MSG_VZA_Disk_201608160000.h5',
 'data_msg/toc-lwcs/BRF-20160802/HDF5_LSASAF_MSG_006-BRF_MSG-Disk_201608020100.h5',
 'data_msg/toc-lwcs/BRF-20160802/HDF5_LSASAF_MSG_008-BRF_MSG-Disk_201608020100.h5',
 'data_msg/toc-lwcs/BRF-20160802/HDF5_LSASAF_MSG_016-BRF_MSG-Disk_201608020100.h5',
 'data_msg/view-angle/ANG-20160802/HDF5_LSASAF_MSG_SAA_MSG-Disk_201608020100.h5',
 'data_msg/view-angle/ANG-20160802/HDF5_LSASAF_MSG_SZA_MSG-Disk_201608020100.h5',
 'data_msg/view-angle/HDF5_LSASAF_MSG_VAA_Disk_201608160000.h5',
 'data_msg/view-angle/HDF5_LSASAF_MSG_VZA_Disk_201608160000.h5',
 'data_msg/toc-lwcs/BRF-20160802/HDF5_LSASAF_MSG_006-BRF_MSG-Disk_201608020115.h5',
 'data_msg/toc-lwcs/BRF-20160802/HDF5_LSASAF_MSG_008-BRF_MSG-Disk_201608020115.h5',
 'data_msg/toc-lwcs/BRF-20160802/HDF5_LSASAF_MSG_016-BRF_MSG-Disk_201608020115.h5',
 'data_msg/view-angle/ANG-20160802/HDF5_LSASAF_MSG_SAA_MSG-Disk_201608020115.h5',
 'data_msg/view-angle/ANG-20160802/HDF5_LSASAF_MSG_SZA_MSG-Disk_201608020115.h5',
 'data_msg/view-angle/HDF5_LSASAF_MSG_VAA_Disk_201608160000.h5',
 'data_msg/view-angle/HDF5_LSASAF_MSG_VZA_Disk_201608160000.h5',
 'data_msg/toc-lwcs/BRF-20160802/HDF5_LSASAF_MSG_006-BRF_MSG-Disk_201608020130.h5',
 'data_msg/toc-lwcs/BRF-20160802/HDF5_LSASAF_MSG_008-BRF_MSG-Disk_201608020130.h5',
 'data_msg/toc-lwcs/BRF-20160802/HDF5_LSASAF_MSG_016-BRF_MSG-Disk_201608020130.h5',
 'data_msg/view-angle/ANG-20160802/HDF5_LSASAF_MSG_SAA_MSG-Disk_201608020130.h5',
 'data_msg/view-angle/ANG-20160802/HDF5_LSASAF_MSG_SZA_MSG-Disk_201608020130.h5',
 'data_msg/view-angle/HDF5_LSASAF_MSG_VAA_Disk_201608160000.h5',
 'data_msg/view-angle/HDF5_LSASAF_MSG_VZA_Disk_201608160000.h5',
 'data_msg/toc-lwcs/BRF-20160802/HDF5_LSASAF_MSG_006-BRF_MSG-Disk_201608020145.h5',
 'data_msg/toc-lwcs/BRF-20160802/HDF5_LSASAF_MSG_008-BRF_MSG-Disk_201608020145.h5',
 'data_msg/toc-lwcs/BRF-20160802/HDF5_LSASAF_MSG_016-BRF_MSG-Disk_201608020145.h5',
 'data_msg/view-angle/ANG-20160802/HDF5_LSASAF_MSG_SAA_MSG-Disk_201608020145.h5',
 'data_msg/view-angle/ANG-20160802/HDF5_LSASAF_MSG_SZA_MSG-Disk_201608020145.h5',
 'data_msg/view-angle/HDF5_LSASAF_MSG_VAA_Disk_201608160000.h5',
 'data_msg/view-angle/HDF5_LSASAF_MSG_VZA_Disk_201608160000.h5',
 'data_msg/toc-lwcs/BRF-20160802/HDF5_LSASAF_MSG_006-BRF_MSG-Disk_201608020200.h5',
 'data_msg/toc-lwcs/BRF-20160802/HDF5_LSASAF_MSG_008-BRF_MSG-Disk_201608020200.h5',
 'data_msg/toc-lwcs/BRF-20160802/HDF5_LSASAF_MSG_016-BRF_MSG-Disk_201608020200.h5',
 'data_msg/view-angle/ANG-20160802/HDF5_LSASAF_MSG_SAA_MSG-Disk_201608020200.h5',
 'data_msg/view-angle/ANG-20160802/HDF5_LSASAF_MSG_SZA_MSG-Disk_201608020200.h5',
 'data_msg/view-angle/HDF5_LSASAF_MSG_VAA_Disk_201608160000.h5',
 'data_msg/view-angle/HDF5_LSASAF_MSG_VZA_Disk_201608160000.h5',
 'data_msg/toc-lwcs/BRF-20160802/HDF5_LSASAF_MSG_006-BRF_MSG-Disk_201608020215.h5',
 'data_msg/toc-lwcs/BRF-20160802/HDF5_LSASAF_MSG_008-BRF_MSG-Disk_201608020215.h5',
 'data_msg/toc-lwcs/BRF-20160802/HDF5_LSASAF_MSG_016-BRF_MSG-Disk_201608020215.h5',
 'data_msg/view-angle/ANG-20160802/HDF5_LSASAF_MSG_SAA_MSG-Disk_201608020215.h5',
 'data_msg/view-angle/ANG-20160802/HDF5_LSASAF_MSG_SZA_MSG-Disk_201608020215.h5',
 'data_msg/view-angle/HDF5_LSASAF_MSG_VAA_Disk_201608160000.h5',
 'data_msg/view-angle/HDF5_LSASAF_MSG_VZA_Disk_201608160000.h5',
 'data_msg/toc-lwcs/BRF-20160802/HDF5_LSASAF_MSG_006-BRF_MSG-Disk_201608020230.h5',
 'data_msg/toc-lwcs/BRF-20160802/HDF5_LSASAF_MSG_008-BRF_MSG-Disk_201608020230.h5',
 'data_msg/toc-lwcs/BRF-20160802/HDF5_LSASAF_MSG_016-BRF_MSG-Disk_201608020230.h5',
 'data_msg/view-angle/ANG-20160802/HDF5_LSASAF_MSG_SAA_MSG-Disk_201608020230.h5',
 'data_msg/view-angle/ANG-20160802/HDF5_LSASAF_MSG_SZA_MSG-Disk_201608020230.h5',
 'data_msg/view-angle/HDF5_LSASAF_MSG_VAA_Disk_201608160000.h5',
 'data_msg/view-angle/HDF5_LSASAF_MSG_VZA_Disk_201608160000.h5',
 'data_msg/toc-lwcs/BRF-20160802/HDF5_LSASAF_MSG_006-BRF_MSG-Disk_201608020245.h5',
 'data_msg/toc-lwcs/BRF-20160802/HDF5_LSASAF_MSG_008-BRF_MSG-Disk_201608020245.h5',
 'data_msg/toc-lwcs/BRF-20160802/HDF5_LSASAF_MSG_016-BRF_MSG-Disk_201608020245.h5',
 'data_msg/view-angle/ANG-20160802/HDF5_LSASAF_MSG_SAA_MSG-Disk_201608020245.h5',
 'data_msg/view-angle/ANG-20160802/HDF5_LSASAF_MSG_SZA_MSG-Disk_201608020245.h5',
 'data_msg/view-angle/HDF5_LSASAF_MSG_VAA_Disk_201608160000.h5',
 'data_msg/view-angle/HDF5_LSASAF_MSG_VZA_Disk_201608160000.h5',
 'data_msg/toc-lwcs/BRF-20160802/HDF5_LSASAF_MSG_006-BRF_MSG-Disk_201608020300.h5',
 'data_msg/toc-lwcs/BRF-20160802/HDF5_LSASAF_MSG_008-BRF_MSG-Disk_201608020300.h5',
 'data_msg/toc-lwcs/BRF-20160802/HDF5_LSASAF_MSG_016-BRF_MSG-Disk_201608020300.h5',
 'data_msg/view-angle/ANG-20160802/HDF5_LSASAF_MSG_SAA_MSG-Disk_201608020300.h5',
 'data_msg/view-angle/ANG-20160802/HDF5_LSASAF_MSG_SZA_MSG-Disk_201608020300.h5',
 'data_msg/view-angle/HDF5_LSASAF_MSG_VAA_Disk_201608160000.h5',
 'data_msg/view-angle/HDF5_LSASAF_MSG_VZA_Disk_201608160000.h5',
 'data_msg/toc-lwcs/BRF-20160802/HDF5_LSASAF_MSG_006-BRF_MSG-Disk_201608020315.h5',
 'data_msg/toc-lwcs/BRF-20160802/HDF5_LSASAF_MSG_008-BRF_MSG-Disk_201608020315.h5',
 'data_msg/toc-lwcs/BRF-20160802/HDF5_LSASAF_MSG_016-BRF_MSG-Disk_201608020315.h5',
 'data_msg/view-angle/ANG-20160802/HDF5_LSASAF_MSG_SAA_MSG-Disk_201608020315.h5',
 'data_msg/view-angle/ANG-20160802/HDF5_LSASAF_MSG_SZA_MSG-Disk_201608020315.h5',
 'data_msg/view-angle/HDF5_LSASAF_MSG_VAA_Disk_201608160000.h5',
 'data_msg/view-angle/HDF5_LSASAF_MSG_VZA_Disk_201608160000.h5',
 'data_msg/toc-lwcs/BRF-20160802/HDF5_LSASAF_MSG_006-BRF_MSG-Disk_201608020330.h5',
 'data_msg/toc-lwcs/BRF-20160802/HDF5_LSASAF_MSG_008-BRF_MSG-Disk_201608020330.h5',
 'data_msg/toc-lwcs/BRF-20160802/HDF5_LSASAF_MSG_016-BRF_MSG-Disk_201608020330.h5',
 'data_msg/view-angle/ANG-20160802/HDF5_LSASAF_MSG_SAA_MSG-Disk_201608020330.h5',
 'data_msg/view-angle/ANG-20160802/HDF5_LSASAF_MSG_SZA_MSG-Disk_201608020330.h5',
 'data_msg/view-angle/HDF5_LSASAF_MSG_VAA_Disk_201608160000.h5',
 'data_msg/view-angle/HDF5_LSASAF_MSG_VZA_Disk_201608160000.h5',
 'data_msg/toc-lwcs/BRF-20160802/HDF5_LSASAF_MSG_006-BRF_MSG-Disk_201608020345.h5',
 'data_msg/toc-lwcs/BRF-20160802/HDF5_LSASAF_MSG_008-BRF_MSG-Disk_201608020345.h5',
 'data_msg/toc-lwcs/BRF-20160802/HDF5_LSASAF_MSG_016-BRF_MSG-Disk_201608020345.h5',
 'data_msg/view-angle/ANG-20160802/HDF5_LSASAF_MSG_SAA_MSG-Disk_201608020345.h5',
 'data_msg/view-angle/ANG-20160802/HDF5_LSASAF_MSG_SZA_MSG-Disk_201608020345.h5',
 'data_msg/view-angle/HDF5_LSASAF_MSG_VAA_Disk_201608160000.h5',
 'data_msg/view-angle/HDF5_LSASAF_MSG_VZA_Disk_201608160000.h5',
 'data_msg/toc-lwcs/BRF-20160802/HDF5_LSASAF_MSG_006-BRF_MSG-Disk_201608020400.h5',
 'data_msg/toc-lwcs/BRF-20160802/HDF5_LSASAF_MSG_008-BRF_MSG-Disk_201608020400.h5',
 'data_msg/toc-lwcs/BRF-20160802/HDF5_LSASAF_MSG_016-BRF_MSG-Disk_201608020400.h5',
 'data_msg/view-angle/ANG-20160802/HDF5_LSASAF_MSG_SAA_MSG-Disk_201608020400.h5',
 'data_msg/view-angle/ANG-20160802/HDF5_LSASAF_MSG_SZA_MSG-Disk_201608020400.h5',
 'data_msg/view-angle/HDF5_LSASAF_MSG_VAA_Disk_201608160000.h5',
 'data_msg/view-angle/HDF5_LSASAF_MSG_VZA_Disk_201608160000.h5',
 'data_msg/toc-lwcs/BRF-20160802/HDF5_LSASAF_MSG_006-BRF_MSG-Disk_201608020415.h5',
 'data_msg/toc-lwcs/BRF-20160802/HDF5_LSASAF_MSG_008-BRF_MSG-Disk_201608020415.h5',
 'data_msg/toc-lwcs/BRF-20160802/HDF5_LSASAF_MSG_016-BRF_MSG-Disk_201608020415.h5',
 'data_msg/view-angle/ANG-20160802/HDF5_LSASAF_MSG_SAA_MSG-Disk_201608020415.h5',
 'data_msg/view-angle/ANG-20160802/HDF5_LSASAF_MSG_SZA_MSG-Disk_201608020415.h5',
 'data_msg/view-angle/HDF5_LSASAF_MSG_VAA_Disk_201608160000.h5',
 'data_msg/view-angle/HDF5_LSASAF_MSG_VZA_Disk_201608160000.h5',
 'data_msg/toc-lwcs/BRF-20160802/HDF5_LSASAF_MSG_006-BRF_MSG-Disk_201608020430.h5',
 'data_msg/toc-lwcs/BRF-20160802/HDF5_LSASAF_MSG_008-BRF_MSG-Disk_201608020430.h5',
 'data_msg/toc-lwcs/BRF-20160802/HDF5_LSASAF_MSG_016-BRF_MSG-Disk_201608020430.h5',
 'data_msg/view-angle/ANG-20160802/HDF5_LSASAF_MSG_SAA_MSG-Disk_201608020430.h5',
 'data_msg/view-angle/ANG-20160802/HDF5_LSASAF_MSG_SZA_MSG-Disk_201608020430.h5',
 'data_msg/view-angle/HDF5_LSASAF_MSG_VAA_Disk_201608160000.h5',
 'data_msg/view-angle/HDF5_LSASAF_MSG_VZA_Disk_201608160000.h5',
 'data_msg/toc-lwcs/BRF-20160802/HDF5_LSASAF_MSG_006-BRF_MSG-Disk_201608020445.h5',
 'data_msg/toc-lwcs/BRF-20160802/HDF5_LSASAF_MSG_008-BRF_MSG-Disk_201608020445.h5',
 'data_msg/toc-lwcs/BRF-20160802/HDF5_LSASAF_MSG_016-BRF_MSG-Disk_201608020445.h5',
 'data_msg/view-angle/ANG-20160802/HDF5_LSASAF_MSG_SAA_MSG-Disk_201608020445.h5',
 'data_msg/view-angle/ANG-20160802/HDF5_LSASAF_MSG_SZA_MSG-Disk_201608020445.h5',
 'data_msg/view-angle/HDF5_LSASAF_MSG_VAA_Disk_201608160000.h5',
 'data_msg/view-angle/HDF5_LSASAF_MSG_VZA_Disk_201608160000.h5',
 'data_msg/toc-lwcs/BRF-20160802/HDF5_LSASAF_MSG_006-BRF_MSG-Disk_201608020500.h5',
 'data_msg/toc-lwcs/BRF-20160802/HDF5_LSASAF_MSG_008-BRF_MSG-Disk_201608020500.h5',
 'data_msg/toc-lwcs/BRF-20160802/HDF5_LSASAF_MSG_016-BRF_MSG-Disk_201608020500.h5',
 'data_msg/view-angle/ANG-20160802/HDF5_LSASAF_MSG_SAA_MSG-Disk_201608020500.h5',
 'data_msg/view-angle/ANG-20160802/HDF5_LSASAF_MSG_SZA_MSG-Disk_201608020500.h5',
 'data_msg/view-angle/HDF5_LSASAF_MSG_VAA_Disk_201608160000.h5',
 'data_msg/view-angle/HDF5_LSASAF_MSG_VZA_Disk_201608160000.h5',
 'data_msg/toc-lwcs/BRF-20160802/HDF5_LSASAF_MSG_006-BRF_MSG-Disk_201608020515.h5',
 'data_msg/toc-lwcs/BRF-20160802/HDF5_LSASAF_MSG_008-BRF_MSG-Disk_201608020515.h5',
 'data_msg/toc-lwcs/BRF-20160802/HDF5_LSASAF_MSG_016-BRF_MSG-Disk_201608020515.h5',
 'data_msg/view-angle/ANG-20160802/HDF5_LSASAF_MSG_SAA_MSG-Disk_201608020515.h5',
 'data_msg/view-angle/ANG-20160802/HDF5_LSASAF_MSG_SZA_MSG-Disk_201608020515.h5',
 'data_msg/view-angle/HDF5_LSASAF_MSG_VAA_Disk_201608160000.h5',
 'data_msg/view-angle/HDF5_LSASAF_MSG_VZA_Disk_201608160000.h5',
 'data_msg/toc-lwcs/BRF-20160802/HDF5_LSASAF_MSG_006-BRF_MSG-Disk_201608020530.h5',
 'data_msg/toc-lwcs/BRF-20160802/HDF5_LSASAF_MSG_008-BRF_MSG-Disk_201608020530.h5',
 'data_msg/toc-lwcs/BRF-20160802/HDF5_LSASAF_MSG_016-BRF_MSG-Disk_201608020530.h5',
 'data_msg/view-angle/ANG-20160802/HDF5_LSASAF_MSG_SAA_MSG-Disk_201608020530.h5',
 'data_msg/view-angle/ANG-20160802/HDF5_LSASAF_MSG_SZA_MSG-Disk_201608020530.h5',
 'data_msg/view-angle/HDF5_LSASAF_MSG_VAA_Disk_201608160000.h5',
 'data_msg/view-angle/HDF5_LSASAF_MSG_VZA_Disk_201608160000.h5',
 'data_msg/toc-lwcs/BRF-20160802/HDF5_LSASAF_MSG_006-BRF_MSG-Disk_201608020545.h5',
 'data_msg/toc-lwcs/BRF-20160802/HDF5_LSASAF_MSG_008-BRF_MSG-Disk_201608020545.h5',
 'data_msg/toc-lwcs/BRF-20160802/HDF5_LSASAF_MSG_016-BRF_MSG-Disk_201608020545.h5',
 'data_msg/view-angle/ANG-20160802/HDF5_LSASAF_MSG_SAA_MSG-Disk_201608020545.h5',
 'data_msg/view-angle/ANG-20160802/HDF5_LSASAF_MSG_SZA_MSG-Disk_201608020545.h5',
 'data_msg/view-angle/HDF5_LSASAF_MSG_VAA_Disk_201608160000.h5',
 'data_msg/view-angle/HDF5_LSASAF_MSG_VZA_Disk_201608160000.h5',
 'data_msg/toc-lwcs/BRF-20160802/HDF5_LSASAF_MSG_006-BRF_MSG-Disk_201608020600.h5',
 'data_msg/toc-lwcs/BRF-20160802/HDF5_LSASAF_MSG_008-BRF_MSG-Disk_201608020600.h5',
 'data_msg/toc-lwcs/BRF-20160802/HDF5_LSASAF_MSG_016-BRF_MSG-Disk_201608020600.h5',
 'data_msg/view-angle/ANG-20160802/HDF5_LSASAF_MSG_SAA_MSG-Disk_201608020600.h5',
 'data_msg/view-angle/ANG-20160802/HDF5_LSASAF_MSG_SZA_MSG-Disk_201608020600.h5',
 'data_msg/view-angle/HDF5_LSASAF_MSG_VAA_Disk_201608160000.h5',
 'data_msg/view-angle/HDF5_LSASAF_MSG_VZA_Disk_201608160000.h5',
 'data_msg/toc-lwcs/BRF-20160802/HDF5_LSASAF_MSG_006-BRF_MSG-Disk_201608020615.h5',
 'data_msg/toc-lwcs/BRF-20160802/HDF5_LSASAF_MSG_008-BRF_MSG-Disk_201608020615.h5',
 'data_msg/toc-lwcs/BRF-20160802/HDF5_LSASAF_MSG_016-BRF_MSG-Disk_201608020615.h5',
 'data_msg/view-angle/ANG-20160802/HDF5_LSASAF_MSG_SAA_MSG-Disk_201608020615.h5',
 'data_msg/view-angle/ANG-20160802/HDF5_LSASAF_MSG_SZA_MSG-Disk_201608020615.h5',
 'data_msg/view-angle/HDF5_LSASAF_MSG_VAA_Disk_201608160000.h5',
 'data_msg/view-angle/HDF5_LSASAF_MSG_VZA_Disk_201608160000.h5',
 'data_msg/toc-lwcs/BRF-20160802/HDF5_LSASAF_MSG_006-BRF_MSG-Disk_201608020630.h5',
 'data_msg/toc-lwcs/BRF-20160802/HDF5_LSASAF_MSG_008-BRF_MSG-Disk_201608020630.h5',
 'data_msg/toc-lwcs/BRF-20160802/HDF5_LSASAF_MSG_016-BRF_MSG-Disk_201608020630.h5',
 'data_msg/view-angle/ANG-20160802/HDF5_LSASAF_MSG_SAA_MSG-Disk_201608020630.h5',
 'data_msg/view-angle/ANG-20160802/HDF5_LSASAF_MSG_SZA_MSG-Disk_201608020630.h5',
 'data_msg/view-angle/HDF5_LSASAF_MSG_VAA_Disk_201608160000.h5',
 'data_msg/view-angle/HDF5_LSASAF_MSG_VZA_Disk_201608160000.h5',
 'data_msg/toc-lwcs/BRF-20160802/HDF5_LSASAF_MSG_006-BRF_MSG-Disk_201608020645.h5',
 'data_msg/toc-lwcs/BRF-20160802/HDF5_LSASAF_MSG_008-BRF_MSG-Disk_201608020645.h5',
 'data_msg/toc-lwcs/BRF-20160802/HDF5_LSASAF_MSG_016-BRF_MSG-Disk_201608020645.h5',
 'data_msg/view-angle/ANG-20160802/HDF5_LSASAF_MSG_SAA_MSG-Disk_201608020645.h5',
 'data_msg/view-angle/ANG-20160802/HDF5_LSASAF_MSG_SZA_MSG-Disk_201608020645.h5',
 'data_msg/view-angle/HDF5_LSASAF_MSG_VAA_Disk_201608160000.h5',
 'data_msg/view-angle/HDF5_LSASAF_MSG_VZA_Disk_201608160000.h5',
 'data_msg/toc-lwcs/BRF-20160802/HDF5_LSASAF_MSG_006-BRF_MSG-Disk_201608020700.h5',
 'data_msg/toc-lwcs/BRF-20160802/HDF5_LSASAF_MSG_008-BRF_MSG-Disk_201608020700.h5',
 'data_msg/toc-lwcs/BRF-20160802/HDF5_LSASAF_MSG_016-BRF_MSG-Disk_201608020700.h5',
 'data_msg/view-angle/ANG-20160802/HDF5_LSASAF_MSG_SAA_MSG-Disk_201608020700.h5',
 'data_msg/view-angle/ANG-20160802/HDF5_LSASAF_MSG_SZA_MSG-Disk_201608020700.h5',
 'data_msg/view-angle/HDF5_LSASAF_MSG_VAA_Disk_201608160000.h5',
 'data_msg/view-angle/HDF5_LSASAF_MSG_VZA_Disk_201608160000.h5',
 'data_msg/toc-lwcs/BRF-20160802/HDF5_LSASAF_MSG_006-BRF_MSG-Disk_201608020715.h5',
 'data_msg/toc-lwcs/BRF-20160802/HDF5_LSASAF_MSG_008-BRF_MSG-Disk_201608020715.h5',
 'data_msg/toc-lwcs/BRF-20160802/HDF5_LSASAF_MSG_016-BRF_MSG-Disk_201608020715.h5',
 'data_msg/view-angle/ANG-20160802/HDF5_LSASAF_MSG_SAA_MSG-Disk_201608020715.h5',
 'data_msg/view-angle/ANG-20160802/HDF5_LSASAF_MSG_SZA_MSG-Disk_201608020715.h5',
 'data_msg/view-angle/HDF5_LSASAF_MSG_VAA_Disk_201608160000.h5',
 'data_msg/view-angle/HDF5_LSASAF_MSG_VZA_Disk_201608160000.h5',
 'data_msg/toc-lwcs/BRF-20160802/HDF5_LSASAF_MSG_006-BRF_MSG-Disk_201608020730.h5',
 'data_msg/toc-lwcs/BRF-20160802/HDF5_LSASAF_MSG_008-BRF_MSG-Disk_201608020730.h5',
 'data_msg/toc-lwcs/BRF-20160802/HDF5_LSASAF_MSG_016-BRF_MSG-Disk_201608020730.h5',
 'data_msg/view-angle/ANG-20160802/HDF5_LSASAF_MSG_SAA_MSG-Disk_201608020730.h5',
 'data_msg/view-angle/ANG-20160802/HDF5_LSASAF_MSG_SZA_MSG-Disk_201608020730.h5',
 'data_msg/view-angle/HDF5_LSASAF_MSG_VAA_Disk_201608160000.h5',
 'data_msg/view-angle/HDF5_LSASAF_MSG_VZA_Disk_201608160000.h5',
 'data_msg/toc-lwcs/BRF-20160802/HDF5_LSASAF_MSG_006-BRF_MSG-Disk_201608020745.h5',
 'data_msg/toc-lwcs/BRF-20160802/HDF5_LSASAF_MSG_008-BRF_MSG-Disk_201608020745.h5',
 'data_msg/toc-lwcs/BRF-20160802/HDF5_LSASAF_MSG_016-BRF_MSG-Disk_201608020745.h5',
 'data_msg/view-angle/ANG-20160802/HDF5_LSASAF_MSG_SAA_MSG-Disk_201608020745.h5',
 'data_msg/view-angle/ANG-20160802/HDF5_LSASAF_MSG_SZA_MSG-Disk_201608020745.h5',
 'data_msg/view-angle/HDF5_LSASAF_MSG_VAA_Disk_201608160000.h5',
 'data_msg/view-angle/HDF5_LSASAF_MSG_VZA_Disk_201608160000.h5',
 'data_msg/toc-lwcs/BRF-20160802/HDF5_LSASAF_MSG_006-BRF_MSG-Disk_201608020800.h5',
 'data_msg/toc-lwcs/BRF-20160802/HDF5_LSASAF_MSG_008-BRF_MSG-Disk_201608020800.h5',
 'data_msg/toc-lwcs/BRF-20160802/HDF5_LSASAF_MSG_016-BRF_MSG-Disk_201608020800.h5',
 'data_msg/view-angle/ANG-20160802/HDF5_LSASAF_MSG_SAA_MSG-Disk_201608020800.h5',
 'data_msg/view-angle/ANG-20160802/HDF5_LSASAF_MSG_SZA_MSG-Disk_201608020800.h5',
 'data_msg/view-angle/HDF5_LSASAF_MSG_VAA_Disk_201608160000.h5',
 'data_msg/view-angle/HDF5_LSASAF_MSG_VZA_Disk_201608160000.h5',
 'data_msg/toc-lwcs/BRF-20160802/HDF5_LSASAF_MSG_006-BRF_MSG-Disk_201608020815.h5',
 'data_msg/toc-lwcs/BRF-20160802/HDF5_LSASAF_MSG_008-BRF_MSG-Disk_201608020815.h5',
 'data_msg/toc-lwcs/BRF-20160802/HDF5_LSASAF_MSG_016-BRF_MSG-Disk_201608020815.h5',
 'data_msg/view-angle/ANG-20160802/HDF5_LSASAF_MSG_SAA_MSG-Disk_201608020815.h5',
 'data_msg/view-angle/ANG-20160802/HDF5_LSASAF_MSG_SZA_MSG-Disk_201608020815.h5',
 'data_msg/view-angle/HDF5_LSASAF_MSG_VAA_Disk_201608160000.h5',
 'data_msg/view-angle/HDF5_LSASAF_MSG_VZA_Disk_201608160000.h5',
 'data_msg/toc-lwcs/BRF-20160802/HDF5_LSASAF_MSG_006-BRF_MSG-Disk_201608020830.h5',
 'data_msg/toc-lwcs/BRF-20160802/HDF5_LSASAF_MSG_008-BRF_MSG-Disk_201608020830.h5',
 'data_msg/toc-lwcs/BRF-20160802/HDF5_LSASAF_MSG_016-BRF_MSG-Disk_201608020830.h5',
 'data_msg/view-angle/ANG-20160802/HDF5_LSASAF_MSG_SAA_MSG-Disk_201608020830.h5',
 'data_msg/view-angle/ANG-20160802/HDF5_LSASAF_MSG_SZA_MSG-Disk_201608020830.h5',
 'data_msg/view-angle/HDF5_LSASAF_MSG_VAA_Disk_201608160000.h5',
 'data_msg/view-angle/HDF5_LSASAF_MSG_VZA_Disk_201608160000.h5',
 'data_msg/toc-lwcs/BRF-20160802/HDF5_LSASAF_MSG_006-BRF_MSG-Disk_201608020845.h5',
 'data_msg/toc-lwcs/BRF-20160802/HDF5_LSASAF_MSG_008-BRF_MSG-Disk_201608020845.h5',
 'data_msg/toc-lwcs/BRF-20160802/HDF5_LSASAF_MSG_016-BRF_MSG-Disk_201608020845.h5',
 'data_msg/view-angle/ANG-20160802/HDF5_LSASAF_MSG_SAA_MSG-Disk_201608020845.h5',
 'data_msg/view-angle/ANG-20160802/HDF5_LSASAF_MSG_SZA_MSG-Disk_201608020845.h5',
 'data_msg/view-angle/HDF5_LSASAF_MSG_VAA_Disk_201608160000.h5',
 'data_msg/view-angle/HDF5_LSASAF_MSG_VZA_Disk_201608160000.h5',
 'data_msg/toc-lwcs/BRF-20160802/HDF5_LSASAF_MSG_006-BRF_MSG-Disk_201608020900.h5',
 'data_msg/toc-lwcs/BRF-20160802/HDF5_LSASAF_MSG_008-BRF_MSG-Disk_201608020900.h5',
 'data_msg/toc-lwcs/BRF-20160802/HDF5_LSASAF_MSG_016-BRF_MSG-Disk_201608020900.h5',
 'data_msg/view-angle/ANG-20160802/HDF5_LSASAF_MSG_SAA_MSG-Disk_201608020900.h5',
 'data_msg/view-angle/ANG-20160802/HDF5_LSASAF_MSG_SZA_MSG-Disk_201608020900.h5',
 'data_msg/view-angle/HDF5_LSASAF_MSG_VAA_Disk_201608160000.h5',
 'data_msg/view-angle/HDF5_LSASAF_MSG_VZA_Disk_201608160000.h5',
 'data_msg/toc-lwcs/BRF-20160802/HDF5_LSASAF_MSG_006-BRF_MSG-Disk_201608020915.h5',
 'data_msg/toc-lwcs/BRF-20160802/HDF5_LSASAF_MSG_008-BRF_MSG-Disk_201608020915.h5',
 'data_msg/toc-lwcs/BRF-20160802/HDF5_LSASAF_MSG_016-BRF_MSG-Disk_201608020915.h5',
 'data_msg/view-angle/ANG-20160802/HDF5_LSASAF_MSG_SAA_MSG-Disk_201608020915.h5',
 'data_msg/view-angle/ANG-20160802/HDF5_LSASAF_MSG_SZA_MSG-Disk_201608020915.h5',
 'data_msg/view-angle/HDF5_LSASAF_MSG_VAA_Disk_201608160000.h5',
 'data_msg/view-angle/HDF5_LSASAF_MSG_VZA_Disk_201608160000.h5',
 'data_msg/toc-lwcs/BRF-20160802/HDF5_LSASAF_MSG_006-BRF_MSG-Disk_201608020930.h5',
 'data_msg/toc-lwcs/BRF-20160802/HDF5_LSASAF_MSG_008-BRF_MSG-Disk_201608020930.h5',
 'data_msg/toc-lwcs/BRF-20160802/HDF5_LSASAF_MSG_016-BRF_MSG-Disk_201608020930.h5',
 'data_msg/view-angle/ANG-20160802/HDF5_LSASAF_MSG_SAA_MSG-Disk_201608020930.h5',
 'data_msg/view-angle/ANG-20160802/HDF5_LSASAF_MSG_SZA_MSG-Disk_201608020930.h5',
 'data_msg/view-angle/HDF5_LSASAF_MSG_VAA_Disk_201608160000.h5',
 'data_msg/view-angle/HDF5_LSASAF_MSG_VZA_Disk_201608160000.h5',
 'data_msg/toc-lwcs/BRF-20160802/HDF5_LSASAF_MSG_006-BRF_MSG-Disk_201608020945.h5',
 'data_msg/toc-lwcs/BRF-20160802/HDF5_LSASAF_MSG_008-BRF_MSG-Disk_201608020945.h5',
 'data_msg/toc-lwcs/BRF-20160802/HDF5_LSASAF_MSG_016-BRF_MSG-Disk_201608020945.h5',
 'data_msg/view-angle/ANG-20160802/HDF5_LSASAF_MSG_SAA_MSG-Disk_201608020945.h5',
 'data_msg/view-angle/ANG-20160802/HDF5_LSASAF_MSG_SZA_MSG-Disk_201608020945.h5',
 'data_msg/view-angle/HDF5_LSASAF_MSG_VAA_Disk_201608160000.h5',
 'data_msg/view-angle/HDF5_LSASAF_MSG_VZA_Disk_201608160000.h5',
 'data_msg/toc-lwcs/BRF-20160802/HDF5_LSASAF_MSG_006-BRF_MSG-Disk_201608021000.h5',
 'data_msg/toc-lwcs/BRF-20160802/HDF5_LSASAF_MSG_008-BRF_MSG-Disk_201608021000.h5',
 'data_msg/toc-lwcs/BRF-20160802/HDF5_LSASAF_MSG_016-BRF_MSG-Disk_201608021000.h5',
 'data_msg/view-angle/ANG-20160802/HDF5_LSASAF_MSG_SAA_MSG-Disk_201608021000.h5',
 'data_msg/view-angle/ANG-20160802/HDF5_LSASAF_MSG_SZA_MSG-Disk_201608021000.h5',
 'data_msg/view-angle/HDF5_LSASAF_MSG_VAA_Disk_201608160000.h5',
 'data_msg/view-angle/HDF5_LSASAF_MSG_VZA_Disk_201608160000.h5',
 'data_msg/toc-lwcs/BRF-20160802/HDF5_LSASAF_MSG_006-BRF_MSG-Disk_201608021015.h5',
 'data_msg/toc-lwcs/BRF-20160802/HDF5_LSASAF_MSG_008-BRF_MSG-Disk_201608021015.h5',
 'data_msg/toc-lwcs/BRF-20160802/HDF5_LSASAF_MSG_016-BRF_MSG-Disk_201608021015.h5',
 'data_msg/view-angle/ANG-20160802/HDF5_LSASAF_MSG_SAA_MSG-Disk_201608021015.h5',
 'data_msg/view-angle/ANG-20160802/HDF5_LSASAF_MSG_SZA_MSG-Disk_201608021015.h5',
 'data_msg/view-angle/HDF5_LSASAF_MSG_VAA_Disk_201608160000.h5',
 'data_msg/view-angle/HDF5_LSASAF_MSG_VZA_Disk_201608160000.h5',
 'data_msg/toc-lwcs/BRF-20160802/HDF5_LSASAF_MSG_006-BRF_MSG-Disk_201608021030.h5',
 'data_msg/toc-lwcs/BRF-20160802/HDF5_LSASAF_MSG_008-BRF_MSG-Disk_201608021030.h5',
 'data_msg/toc-lwcs/BRF-20160802/HDF5_LSASAF_MSG_016-BRF_MSG-Disk_201608021030.h5',
 'data_msg/view-angle/ANG-20160802/HDF5_LSASAF_MSG_SAA_MSG-Disk_201608021030.h5',
 'data_msg/view-angle/ANG-20160802/HDF5_LSASAF_MSG_SZA_MSG-Disk_201608021030.h5',
 'data_msg/view-angle/HDF5_LSASAF_MSG_VAA_Disk_201608160000.h5',
 'data_msg/view-angle/HDF5_LSASAF_MSG_VZA_Disk_201608160000.h5',
 'data_msg/toc-lwcs/BRF-20160802/HDF5_LSASAF_MSG_006-BRF_MSG-Disk_201608021045.h5',
 'data_msg/toc-lwcs/BRF-20160802/HDF5_LSASAF_MSG_008-BRF_MSG-Disk_201608021045.h5',
 'data_msg/toc-lwcs/BRF-20160802/HDF5_LSASAF_MSG_016-BRF_MSG-Disk_201608021045.h5',
 'data_msg/view-angle/ANG-20160802/HDF5_LSASAF_MSG_SAA_MSG-Disk_201608021045.h5',
 'data_msg/view-angle/ANG-20160802/HDF5_LSASAF_MSG_SZA_MSG-Disk_201608021045.h5',
 'data_msg/view-angle/HDF5_LSASAF_MSG_VAA_Disk_201608160000.h5',
 'data_msg/view-angle/HDF5_LSASAF_MSG_VZA_Disk_201608160000.h5',
 'data_msg/toc-lwcs/BRF-20160802/HDF5_LSASAF_MSG_006-BRF_MSG-Disk_201608021100.h5',
 'data_msg/toc-lwcs/BRF-20160802/HDF5_LSASAF_MSG_008-BRF_MSG-Disk_201608021100.h5',
 'data_msg/toc-lwcs/BRF-20160802/HDF5_LSASAF_MSG_016-BRF_MSG-Disk_201608021100.h5',
 'data_msg/view-angle/ANG-20160802/HDF5_LSASAF_MSG_SAA_MSG-Disk_201608021100.h5',
 'data_msg/view-angle/ANG-20160802/HDF5_LSASAF_MSG_SZA_MSG-Disk_201608021100.h5',
 'data_msg/view-angle/HDF5_LSASAF_MSG_VAA_Disk_201608160000.h5',
 'data_msg/view-angle/HDF5_LSASAF_MSG_VZA_Disk_201608160000.h5',
 'data_msg/toc-lwcs/BRF-20160802/HDF5_LSASAF_MSG_006-BRF_MSG-Disk_201608021115.h5',
 'data_msg/toc-lwcs/BRF-20160802/HDF5_LSASAF_MSG_008-BRF_MSG-Disk_201608021115.h5',
 'data_msg/toc-lwcs/BRF-20160802/HDF5_LSASAF_MSG_016-BRF_MSG-Disk_201608021115.h5',
 'data_msg/view-angle/ANG-20160802/HDF5_LSASAF_MSG_SAA_MSG-Disk_201608021115.h5',
 'data_msg/view-angle/ANG-20160802/HDF5_LSASAF_MSG_SZA_MSG-Disk_201608021115.h5',
 'data_msg/view-angle/HDF5_LSASAF_MSG_VAA_Disk_201608160000.h5',
 'data_msg/view-angle/HDF5_LSASAF_MSG_VZA_Disk_201608160000.h5',
 'data_msg/toc-lwcs/BRF-20160802/HDF5_LSASAF_MSG_006-BRF_MSG-Disk_201608021130.h5',
 'data_msg/toc-lwcs/BRF-20160802/HDF5_LSASAF_MSG_008-BRF_MSG-Disk_201608021130.h5',
 'data_msg/toc-lwcs/BRF-20160802/HDF5_LSASAF_MSG_016-BRF_MSG-Disk_201608021130.h5',
 'data_msg/view-angle/ANG-20160802/HDF5_LSASAF_MSG_SAA_MSG-Disk_201608021130.h5',
 'data_msg/view-angle/ANG-20160802/HDF5_LSASAF_MSG_SZA_MSG-Disk_201608021130.h5',
 'data_msg/view-angle/HDF5_LSASAF_MSG_VAA_Disk_201608160000.h5',
 'data_msg/view-angle/HDF5_LSASAF_MSG_VZA_Disk_201608160000.h5',
 'data_msg/toc-lwcs/BRF-20160802/HDF5_LSASAF_MSG_006-BRF_MSG-Disk_201608021145.h5',
 'data_msg/toc-lwcs/BRF-20160802/HDF5_LSASAF_MSG_008-BRF_MSG-Disk_201608021145.h5',
 'data_msg/toc-lwcs/BRF-20160802/HDF5_LSASAF_MSG_016-BRF_MSG-Disk_201608021145.h5',
 'data_msg/view-angle/ANG-20160802/HDF5_LSASAF_MSG_SAA_MSG-Disk_201608021145.h5',
 'data_msg/view-angle/ANG-20160802/HDF5_LSASAF_MSG_SZA_MSG-Disk_201608021145.h5',
 'data_msg/view-angle/HDF5_LSASAF_MSG_VAA_Disk_201608160000.h5',
 'data_msg/view-angle/HDF5_LSASAF_MSG_VZA_Disk_201608160000.h5',
 'data_msg/toc-lwcs/BRF-20160802/HDF5_LSASAF_MSG_006-BRF_MSG-Disk_201608021200.h5',
 'data_msg/toc-lwcs/BRF-20160802/HDF5_LSASAF_MSG_008-BRF_MSG-Disk_201608021200.h5',
 'data_msg/toc-lwcs/BRF-20160802/HDF5_LSASAF_MSG_016-BRF_MSG-Disk_201608021200.h5',
 'data_msg/view-angle/ANG-20160802/HDF5_LSASAF_MSG_SAA_MSG-Disk_201608021200.h5',
 'data_msg/view-angle/ANG-20160802/HDF5_LSASAF_MSG_SZA_MSG-Disk_201608021200.h5',
 'data_msg/view-angle/HDF5_LSASAF_MSG_VAA_Disk_201608160000.h5',
 'data_msg/view-angle/HDF5_LSASAF_MSG_VZA_Disk_201608160000.h5',
 'data_msg/toc-lwcs/BRF-20160802/HDF5_LSASAF_MSG_006-BRF_MSG-Disk_201608021215.h5',
 'data_msg/toc-lwcs/BRF-20160802/HDF5_LSASAF_MSG_008-BRF_MSG-Disk_201608021215.h5',
 'data_msg/toc-lwcs/BRF-20160802/HDF5_LSASAF_MSG_016-BRF_MSG-Disk_201608021215.h5',
 'data_msg/view-angle/ANG-20160802/HDF5_LSASAF_MSG_SAA_MSG-Disk_201608021215.h5',
 'data_msg/view-angle/ANG-20160802/HDF5_LSASAF_MSG_SZA_MSG-Disk_201608021215.h5',
 'data_msg/view-angle/HDF5_LSASAF_MSG_VAA_Disk_201608160000.h5',
 'data_msg/view-angle/HDF5_LSASAF_MSG_VZA_Disk_201608160000.h5',
 'data_msg/toc-lwcs/BRF-20160802/HDF5_LSASAF_MSG_006-BRF_MSG-Disk_201608021230.h5',
 'data_msg/toc-lwcs/BRF-20160802/HDF5_LSASAF_MSG_008-BRF_MSG-Disk_201608021230.h5',
 'data_msg/toc-lwcs/BRF-20160802/HDF5_LSASAF_MSG_016-BRF_MSG-Disk_201608021230.h5',
 'data_msg/view-angle/ANG-20160802/HDF5_LSASAF_MSG_SAA_MSG-Disk_201608021230.h5',
 'data_msg/view-angle/ANG-20160802/HDF5_LSASAF_MSG_SZA_MSG-Disk_201608021230.h5',
 'data_msg/view-angle/HDF5_LSASAF_MSG_VAA_Disk_201608160000.h5',
 'data_msg/view-angle/HDF5_LSASAF_MSG_VZA_Disk_201608160000.h5',
 'data_msg/toc-lwcs/BRF-20160802/HDF5_LSASAF_MSG_006-BRF_MSG-Disk_201608021245.h5',
 'data_msg/toc-lwcs/BRF-20160802/HDF5_LSASAF_MSG_008-BRF_MSG-Disk_201608021245.h5',
 'data_msg/toc-lwcs/BRF-20160802/HDF5_LSASAF_MSG_016-BRF_MSG-Disk_201608021245.h5',
 'data_msg/view-angle/ANG-20160802/HDF5_LSASAF_MSG_SAA_MSG-Disk_201608021245.h5',
 'data_msg/view-angle/ANG-20160802/HDF5_LSASAF_MSG_SZA_MSG-Disk_201608021245.h5',
 'data_msg/view-angle/HDF5_LSASAF_MSG_VAA_Disk_201608160000.h5',
 'data_msg/view-angle/HDF5_LSASAF_MSG_VZA_Disk_201608160000.h5',
 'data_msg/toc-lwcs/BRF-20160802/HDF5_LSASAF_MSG_006-BRF_MSG-Disk_201608021300.h5',
 'data_msg/toc-lwcs/BRF-20160802/HDF5_LSASAF_MSG_008-BRF_MSG-Disk_201608021300.h5',
 'data_msg/toc-lwcs/BRF-20160802/HDF5_LSASAF_MSG_016-BRF_MSG-Disk_201608021300.h5',
 'data_msg/view-angle/ANG-20160802/HDF5_LSASAF_MSG_SAA_MSG-Disk_201608021300.h5',
 'data_msg/view-angle/ANG-20160802/HDF5_LSASAF_MSG_SZA_MSG-Disk_201608021300.h5',
 'data_msg/view-angle/HDF5_LSASAF_MSG_VAA_Disk_201608160000.h5',
 'data_msg/view-angle/HDF5_LSASAF_MSG_VZA_Disk_201608160000.h5',
 'data_msg/toc-lwcs/BRF-20160802/HDF5_LSASAF_MSG_006-BRF_MSG-Disk_201608021315.h5',
 'data_msg/toc-lwcs/BRF-20160802/HDF5_LSASAF_MSG_008-BRF_MSG-Disk_201608021315.h5',
 'data_msg/toc-lwcs/BRF-20160802/HDF5_LSASAF_MSG_016-BRF_MSG-Disk_201608021315.h5',
 'data_msg/view-angle/ANG-20160802/HDF5_LSASAF_MSG_SAA_MSG-Disk_201608021315.h5',
 'data_msg/view-angle/ANG-20160802/HDF5_LSASAF_MSG_SZA_MSG-Disk_201608021315.h5',
 'data_msg/view-angle/HDF5_LSASAF_MSG_VAA_Disk_201608160000.h5',
 'data_msg/view-angle/HDF5_LSASAF_MSG_VZA_Disk_201608160000.h5',