 &NAM_ALG_MODES
 MODE      = 1
 /
 &NAM_ALG_INPUT_FILES_PATH
 YFILEINP    = '/cnrm/vegeo/SAT/DATA/MSG/NRT-Operational/INPUTS/LAT-LON/MSG-Disk/HDF5_LSASAF_MSG_LAT_MSG-Disk_201412091000',
 'output/%Y/%m/%d/HDF5_LSASAF_MSG_AL-C1-K012_MSG-Disk_%Y%m%d#-1 day',
 'output/%Y/%m/%d/HDF5_LSASAF_MSG_AL-C1-CK_MSG-Disk_%Y%m%d#-1 day',
 'output/%Y/%m/%d/HDF5_LSASAF_MSG_AL-C2-K012_MSG-Disk_%Y%m%d#-1 day',
 'output/%Y/%m/%d/HDF5_LSASAF_MSG_AL-C2-CK_MSG-Disk_%Y%m%d#-1 day',
 'output/%Y/%m/%d/HDF5_LSASAF_MSG_AL-C3-K012_MSG-Disk_%Y%m%d#-1 day',
 'output/%Y/%m/%d/HDF5_LSASAF_MSG_AL-C3-CK_MSG-Disk_%Y%m%d#-1 day',
 '/cnrm/vegeo/SAT/DATA/MSG/NRT-Operational/AL1/BRF-%Y%m%d/HDF5_LSASAF_MSG_006-BRF_MSG-Disk_%Y%m%d0000.h5',
 '/cnrm/vegeo/SAT/DATA/MSG/NRT-Operational/AL1/BRF-%Y%m%d/HDF5_LSASAF_MSG_008-BRF_MSG-Disk_%Y%m%d0000.h5',
 '/cnrm/vegeo/SAT/DATA/MSG/NRT-Operational/AL1/BRF-%Y%m%d/HDF5_LSASAF_MSG_016-BRF_MSG-Disk_%Y%m%d0000.h5',
 '/cnrm/vegeo/SAT/DATA/MSG/NRT-Operational/INPUTS/ANGLES/ANG-%Y%m%d/HDF5_LSASAF_MSG_SAA_MSG-Disk_%Y%m%d0000.h5',
 '/cnrm/vegeo/SAT/DATA/MSG/NRT-Operational/INPUTS/ANGLES/ANG-%Y%m%d/HDF5_LSASAF_MSG_SZA_MSG-Disk_%Y%m%d0000.h5',
 '/cnrm/vegeo/SAT/DATA/MSG/NRT-Operational/HDF5_LSASAF_MSG_VAA_MSG-Disk_201601151200.h5',
 '/cnrm/vegeo/SAT/DATA/MSG/NRT-Operational/HDF5_LSASAF_MSG_VZA_MSG-Disk_201601151200.h5',
 '/cnrm/vegeo/SAT/DATA/MSG/NRT-Operational/AL1/BRF-%Y%m%d/HDF5_LSASAF_MSG_006-BRF_MSG-Disk_%Y%m%d0015.h5',
 '/cnrm/vegeo/SAT/DATA/MSG/NRT-Operational/AL1/BRF-%Y%m%d/HDF5_LSASAF_MSG_008-BRF_MSG-Disk_%Y%m%d0015.h5',
 '/cnrm/vegeo/SAT/DATA/MSG/NRT-Operational/AL1/BRF-%Y%m%d/HDF5_LSASAF_MSG_016-BRF_MSG-Disk_%Y%m%d0015.h5',
 '/cnrm/vegeo/SAT/DATA/MSG/NRT-Operational/INPUTS/ANGLES/ANG-%Y%m%d/HDF5_LSASAF_MSG_SAA_MSG-Disk_%Y%m%d0015.h5',
 '/cnrm/vegeo/SAT/DATA/MSG/NRT-Operational/INPUTS/ANGLES/ANG-%Y%m%d/HDF5_LSASAF_MSG_SZA_MSG-Disk_%Y%m%d0015.h5',
 '/cnrm/vegeo/SAT/DATA/MSG/NRT-Operational/HDF5_LSASAF_MSG_VAA_MSG-Disk_201601151200.h5',
 '/cnrm/vegeo/SAT/DATA/MSG/NRT-Operational/HDF5_LSASAF_MSG_VZA_MSG-Disk_201601151200.h5',
 '/cnrm/vegeo/SAT/DATA/MSG/NRT-Operational/AL1/BRF-%Y%m%d/HDF5_LSASAF_MSG_006-BRF_MSG-Disk_%Y%m%d0030.h5',
 '/cnrm/vegeo/SAT/DATA/MSG/NRT-Operational/AL1/BRF-%Y%m%d/HDF5_LSASAF_MSG_008-BRF_MSG-Disk_%Y%m%d0030.h5',
 '/cnrm/vegeo/SAT/DATA/MSG/NRT-Operational/AL1/BRF-%Y%m%d/HDF5_LSASAF_MSG_016-BRF_MSG-Disk_%Y%m%d0030.h5',
 '/cnrm/vegeo/SAT/DATA/MSG/NRT-Operational/INPUTS/ANGLES/ANG-%Y%m%d/HDF5_LSASAF_MSG_SAA_MSG-Disk_%Y%m%d0030.h5',
 '/cnrm/vegeo/SAT/DATA/MSG/NRT-Operational/INPUTS/ANGLES/ANG-%Y%m%d/HDF5_LSASAF_MSG_SZA_MSG-Disk_%Y%m%d0030.h5',
 '/cnrm/vegeo/SAT/DATA/MSG/NRT-Operational/HDF5_LSASAF_MSG_VAA_MSG-Disk_201601151200.h5',
 '/cnrm/vegeo/SAT/DATA/MSG/NRT-Operational/HDF5_LSASAF_MSG_VZA_MSG-Disk_201601151200.h5',
 '/cnrm/vegeo/SAT/DATA/MSG/NRT-Operational/AL1/BRF-%Y%m%d/HDF5_LSASAF_MSG_006-BRF_MSG-Disk_%Y%m%d0045.h5',
 '/cnrm/vegeo/SAT/DATA/MSG/NRT-Operational/AL1/BRF-%Y%m%d/HDF5_LSASAF_MSG_008-BRF_MSG-Disk_%Y%m%d0045.h5',
 '/cnrm/vegeo/SAT/DATA/MSG/NRT-Operational/AL1/BRF-%Y%m%d/HDF5_LSASAF_MSG_016-BRF_MSG-Disk_%Y%m%d0045.h5',
 '/cnrm/vegeo/SAT/DATA/MSG/NRT-Operational/INPUTS/ANGLES/ANG-%Y%m%d/HDF5_LSASAF_MSG_SAA_MSG-Disk_%Y%m%d0045.h5',
 '/cnrm/vegeo/SAT/DATA/MSG/NRT-Operational/INPUTS/ANGLES/ANG-%Y%m%d/HDF5_LSASAF_MSG_SZA_MSG-Disk_%Y%m%d0045.h5',
 '/cnrm/vegeo/SAT/DATA/MSG/NRT-Operational/HDF5_LSASAF_MSG_VAA_MSG-Disk_201601151200.h5',
 '/cnrm/vegeo/SAT/DATA/MSG/NRT-Operational/HDF5_LSASAF_MSG_VZA_MSG-Disk_201601151200.h5',
 '/cnrm/vegeo/SAT/DATA/MSG/NRT-Operational/AL1/BRF-%Y%m%d/HDF5_LSASAF_MSG_006-BRF_MSG-Disk_%Y%m%d0100.h5',
 '/cnrm/vegeo/SAT/DATA/MSG/NRT-Operational/AL1/BRF-%Y%m%d/HDF5_LSASAF_MSG_008-BRF_MSG-Disk_%Y%m%d0100.h5',
 '/cnrm/vegeo/SAT/DATA/MSG/NRT-Operational/AL1/BRF-%Y%m%d/HDF5_LSASAF_MSG_016-BRF_MSG-Disk_%Y%m%d0100.h5',
 '/cnrm/vegeo/SAT/DATA/MSG/NRT-Operational/INPUTS/ANGLES/ANG-%Y%m%d/HDF5_LSASAF_MSG_SAA_MSG-Disk_%Y%m%d0100.h5',
 '/cnrm/vegeo/SAT/DATA/MSG/NRT-Operational/INPUTS/ANGLES/ANG-%Y%m%d/HDF5_LSASAF_MSG_SZA_MSG-Disk_%Y%m%d0100.h5',
 '/cnrm/vegeo/SAT/DATA/MSG/NRT-Operational/HDF5_LSASAF_MSG_VAA_MSG-Disk_201601151200.h5',
 '/cnrm/vegeo/SAT/DATA/MSG/NRT-Operational/HDF5_LSASAF_MSG_VZA_MSG-Disk_201601151200.h5',
 '/cnrm/vegeo/SAT/DATA/MSG/NRT-Operational/AL1/BRF-%Y%m%d/HDF5_LSASAF_MSG_006-BRF_MSG-Disk_%Y%m%d0115.h5',
 '/cnrm/vegeo/SAT/DATA/MSG/NRT-Operational/AL1/BRF-%Y%m%d/HDF5_LSASAF_MSG_008-BRF_MSG-Disk_%Y%m%d0115.h5',
 '/cnrm/vegeo/SAT/DATA/MSG/NRT-Operational/AL1/BRF-%Y%m%d/HDF5_LSASAF_MSG_016-BRF_MSG-Disk_%Y%m%d0115.h5',
 '/cnrm/vegeo/SAT/DATA/MSG/NRT-Operational/INPUTS/ANGLES/ANG-%Y%m%d/HDF5_LSASAF_MSG_SAA_MSG-Disk_%Y%m%d0115.h5',
 '/cnrm/vegeo/SAT/DATA/MSG/NRT-Operational/INPUTS/ANGLES/ANG-%Y%m%d/HDF5_LSASAF_MSG_SZA_MSG-Disk_%Y%m%d0115.h5',
 '/cnrm/vegeo/SAT/DATA/MSG/NRT-Operational/HDF5_LSASAF_MSG_VAA_MSG-Disk_201601151200.h5',
 '/cnrm/vegeo/SAT/DATA/MSG/NRT-Operational/HDF5_LSASAF_MSG_VZA_MSG-Disk_201601151200.h5',
 '/cnrm/vegeo/SAT/DATA/MSG/NRT-Operational/AL1/BRF-%Y%m%d/HDF5_LSASAF_MSG_006-BRF_MSG-Disk_%Y%m%d0130.h5',
 '/cnrm/vegeo/SAT/DATA/MSG/NRT-Operational/AL1/BRF-%Y%m%d/HDF5_LSASAF_MSG_008-BRF_MSG-Disk_%Y%m%d0130.h5',
 '/cnrm/vegeo/SAT/DATA/MSG/NRT-Operational/AL1/BRF-%Y%m%d/HDF5_LSASAF_MSG_016-BRF_MSG-Disk_%Y%m%d0130.h5',
 '/cnrm/vegeo/SAT/DATA/MSG/NRT-Operational/INPUTS/ANGLES/ANG-%Y%m%d/HDF5_LSASAF_MSG_SAA_MSG-Disk_%Y%m%d0130.h5',
 '/cnrm/vegeo/SAT/DATA/MSG/NRT-Operational/INPUTS/ANGLES/ANG-%Y%m%d/HDF5_LSASAF_MSG_SZA_MSG-Disk_%Y%m%d0130.h5',
 '/cnrm/vegeo/SAT/DATA/MSG/NRT-Operational/HDF5_LSASAF_MSG_VAA_MSG-Disk_201601151200.h5',
 '/cnrm/vegeo/SAT/DATA/MSG/NRT-Operational/HDF5_LSASAF_MSG_VZA_MSG-Disk_201601151200.h5',
 '/cnrm/vegeo/SAT/DATA/MSG/NRT-Operational/AL1/BRF-%Y%m%d/HDF5_LSASAF_MSG_006-BRF_MSG-Disk_%Y%m%d0145.h5',
 '/cnrm/vegeo/SAT/DATA/MSG/NRT-Operational/AL1/BRF-%Y%m%d/HDF5_LSASAF_MSG_008-BRF_MSG-Disk_%Y%m%d0145.h5',
 '/cnrm/vegeo/SAT/DATA/MSG/NRT-Operational/AL1/BRF-%Y%m%d/HDF5_LSASAF_MSG_016-BRF_MSG-Disk_%Y%m%d0145.h5',
 '/cnrm/vegeo/SAT/DATA/MSG/NRT-Operational/INPUTS/ANGLES/ANG-%Y%m%d/HDF5_LSASAF_MSG_SAA_MSG-Disk_%Y%m%d0145.h5',
 '/cnrm/vegeo/SAT/DATA/MSG/NRT-Operational/INPUTS/ANGLES/ANG-%Y%m%d/HDF5_LSASAF_MSG_SZA_MSG-Disk_%Y%m%d0145.h5',
 '/cnrm/vegeo/SAT/DATA/MSG/NRT-Operational/HDF5_LSASAF_MSG_VAA_MSG-Disk_201601151200.h5',
 '/cnrm/vegeo/SAT/DATA/MSG/NRT-Operational/HDF5_LSASAF_MSG_VZA_MSG-Disk_201601151200.h5',
 '/cnrm/vegeo/SAT/DATA/MSG/NRT-Operational/AL1/BRF-%Y%m%d/HDF5_LSASAF_MSG_006-BRF_MSG-Disk_%Y%m%d0200.h5',
 '/cnrm/vegeo/SAT/DATA/MSG/NRT-Operational/AL1/BRF-%Y%m%d/HDF5_LSASAF_MSG_008-BRF_MSG-Disk_%Y%m%d0200.h5',
 '/cnrm/vegeo/SAT/DATA/MSG/NRT-Operational/AL1/BRF-%Y%m%d/HDF5_LSASAF_MSG_016-BRF_MSG-Disk_%Y%m%d0200.h5',
 '/cnrm/vegeo/SAT/DATA/MSG/NRT-Operational/INPUTS/ANGLES/ANG-%Y%m%d/HDF5_LSASAF_MSG_SAA_MSG-Disk_%Y%m%d0200.h5',
 '/cnrm/vegeo/SAT/DATA/MSG/NRT-Operational/INPUTS/ANGLES/ANG-%Y%m%d/HDF5_LSASAF_MSG_SZA_MSG-Disk_%Y%m%d0200.h5',
 '/cnrm/vegeo/SAT/DATA/MSG/NRT-Operational/HDF5_LSASAF_MSG_VAA_MSG-Disk_201601151200.h5',
 '/cnrm/vegeo/SAT/DATA/MSG/NRT-Operational/HDF5_LSASAF_MSG_VZA_MSG-Disk_201601151200.h5',
 '/cnrm/vegeo/SAT/DATA/MSG/NRT-Operational/AL1/BRF-%Y%m%d/HDF5_LSASAF_MSG_006-BRF_MSG-Disk_%Y%m%d0215.h5',
 '/cnrm/vegeo/SAT/DATA/MSG/NRT-Operational/AL1/BRF-%Y%m%d/HDF5_LSASAF_MSG_008-BRF_MSG-Disk_%Y%m%d0215.h5',
 '/cnrm/vegeo/SAT/DATA/MSG/NRT-Operational/AL1/BRF-%Y%m%d/HDF5_LSASAF_MSG_016-BRF_MSG-Disk_%Y%m%d0215.h5',
 '/cnrm/vegeo/SAT/DATA/MSG/NRT-Operational/INPUTS/ANGLES/ANG-%Y%m%d/HDF5_LSASAF_MSG_SAA_MSG-Disk_%Y%m%d0215.h5',
 '/cnrm/vegeo/SAT/DATA/MSG/NRT-Operational/INPUTS/ANGLES/ANG-%Y%m%d/HDF5_LSASAF_MSG_SZA_MSG-Disk_%Y%m%d0215.h5',
 '/cnrm/vegeo/SAT/DATA/MSG/NRT-Operational/HDF5_LSASAF_MSG_VAA_MSG-Disk_201601151200.h5',
 '/cnrm/vegeo/SAT/DATA/MSG/NRT-Operational/HDF5_LSASAF_MSG_VZA_MSG-Disk_201601151200.h5',
 '/cnrm/vegeo/SAT/DATA/MSG/NRT-Operational/AL1/BRF-%Y%m%d/HDF5_LSASAF_MSG_006-BRF_MSG-Disk_%Y%m%d0230.h5',
 '/cnrm/vegeo/SAT/DATA/MSG/NRT-Operational/AL1/BRF-%Y%m%d/HDF5_LSASAF_MSG_008-BRF_MSG-Disk_%Y%m%d0230.h5',
 '/cnrm/vegeo/SAT/DATA/MSG/NRT-Operational/AL1/BRF-%Y%m%d/HDF5_LSASAF_MSG_016-BRF_MSG-Disk_%Y%m%d0230.h5',
 '/cnrm/vegeo/SAT/DATA/MSG/NRT-Operational/INPUTS/ANGLES/ANG-%Y%m%d/HDF5_LSASAF_MSG_SAA_MSG-Disk_%Y%m%d0230.h5',
 '/cnrm/vegeo/SAT/DATA/MSG/NRT-Operational/INPUTS/ANGLES/ANG-%Y%m%d/HDF5_LSASAF_MSG_SZA_MSG-Disk_%Y%m%d0230.h5',
 '/cnrm/vegeo/SAT/DATA/MSG/NRT-Operational/HDF5_LSASAF_MSG_VAA_MSG-Disk_201601151200.h5',
 '/cnrm/vegeo/SAT/DATA/MSG/NRT-Operational/HDF5_LSASAF_MSG_VZA_MSG-Disk_201601151200.h5',
 '/cnrm/vegeo/SAT/DATA/MSG/NRT-Operational/AL1/BRF-%Y%m%d/HDF5_LSASAF_MSG_006-BRF_MSG-Disk_%Y%m%d0245.h5',
 '/cnrm/vegeo/SAT/DATA/MSG/NRT-Operational/AL1/BRF-%Y%m%d/HDF5_LSASAF_MSG_008-BRF_MSG-Disk_%Y%m%d0245.h5',
 '/cnrm/vegeo/SAT/DATA/MSG/NRT-Operational/AL1/BRF-%Y%m%d/HDF5_LSASAF_MSG_016-BRF_MSG-Disk_%Y%m%d0245.h5',
 '/cnrm/vegeo/SAT/DATA/MSG/NRT-Operational/INPUTS/ANGLES/ANG-%Y%m%d/HDF5_LSASAF_MSG_SAA_MSG-Disk_%Y%m%d0245.h5',
 '/cnrm/vegeo/SAT/DATA/MSG/NRT-Operational/INPUTS/ANGLES/ANG-%Y%m%d/HDF5_LSASAF_MSG_SZA_MSG-Disk_%Y%m%d0245.h5',
 '/cnrm/vegeo/SAT/DATA/MSG/NRT-Operational/HDF5_LSASAF_MSG_VAA_MSG-Disk_201601151200.h5',
 '/cnrm/vegeo/SAT/DATA/MSG/NRT-Operational/HDF5_LSASAF_MSG_VZA_MSG-Disk_201601151200.h5',
 '/cnrm/vegeo/SAT/DATA/MSG/NRT-Operational/AL1/BRF-%Y%m%d/HDF5_LSASAF_MSG_006-BRF_MSG-Disk_%Y%m%d0300.h5',
 '/cnrm/vegeo/SAT/DATA/MSG/NRT-Operational/AL1/BRF-%Y%m%d/HDF5_LSASAF_MSG_008-BRF_MSG-Disk_%Y%m%d0300.h5',
 '/cnrm/vegeo/SAT/DATA/MSG/NRT-Operational/AL1/BRF-%Y%m%d/HDF5_LSASAF_MSG_016-BRF_MSG-Disk_%Y%m%d0300.h5',
 '/cnrm/vegeo/SAT/DATA/MSG/NRT-Operational/INPUTS/ANGLES/ANG-%Y%m%d/HDF5_LSASAF_MSG_SAA_MSG-Disk_%Y%m%d0300.h5',
 '/cnrm/vegeo/SAT/DATA/MSG/NRT-Operational/INPUTS/ANGLES/ANG-%Y%m%d/HDF5_LSASAF_MSG_SZA_MSG-Disk_%Y%m%d0300.h5',
 '/cnrm/vegeo/SAT/DATA/MSG/NRT-Operational/HDF5_LSASAF_MSG_VAA_MSG-Disk_201601151200.h5',
 '/cnrm/vegeo/SAT/DATA/MSG/NRT-Operational/HDF5_LSASAF_MSG_VZA_MSG-Disk_201601151200.h5',
 '/cnrm/vegeo/SAT/DATA/MSG/NRT-Operational/AL1/BRF-%Y%m%d/HDF5_LSASAF_MSG_006-BRF_MSG-Disk_%Y%m%d0315.h5',
 '/cnrm/vegeo/SAT/DATA/MSG/NRT-Operational/AL1/BRF-%Y%m%d/HDF5_LSASAF_MSG_008-BRF_MSG-Disk_%Y%m%d0315.h5',
 '/cnrm/vegeo/SAT/DATA/MSG/NRT-Operational/AL1/BRF-%Y%m%d/HDF5_LSASAF_MSG_016-BRF_MSG-Disk_%Y%m%d0315.h5',
 '/cnrm/vegeo/SAT/DATA/MSG/NRT-Operational/INPUTS/ANGLES/ANG-%Y%m%d/HDF5_LSASAF_MSG_SAA_MSG-Disk_%Y%m%d0315.h5',
 '/cnrm/vegeo/SAT/DATA/MSG/NRT-Operational/INPUTS/ANGLES/ANG-%Y%m%d/HDF5_LSASAF_MSG_SZA_MSG-Disk_%Y%m%d0315.h5',
 '/cnrm/vegeo/SAT/DATA/MSG/NRT-Operational/HDF5_LSASAF_MSG_VAA_MSG-Disk_201601151200.h5',
 '/cnrm/vegeo/SAT/DATA/MSG/NRT-Operational/HDF5_LSASAF_MSG_VZA_MSG-Disk_201601151200.h5',
 '/cnrm/vegeo/SAT/DATA/MSG/NRT-Operational/AL1/BRF-%Y%m%d/HDF5_LSASAF_MSG_006-BRF_MSG-Disk_%Y%m%d0330.h5',
 '/cnrm/vegeo/SAT/DATA/MSG/NRT-Operational/AL1/BRF-%Y%m%d/HDF5_LSASAF_MSG_008-BRF_MSG-Disk_%Y%m%d0330.h5',
 '/cnrm/vegeo/SAT/DATA/MSG/NRT-Operational/AL1/BRF-%Y%m%d/HDF5_LSASAF_MSG_016-BRF_MSG-Disk_%Y%m%d0330.h5',
 '/cnrm/vegeo/SAT/DATA/MSG/NRT-Operational/INPUTS/ANGLES/ANG-%Y%m%d/HDF5_LSASAF_MSG_SAA_MSG-Disk_%Y%m%d0330.h5',
 '/cnrm/vegeo/SAT/DATA/MSG/NRT-Operational/INPUTS/ANGLES/ANG-%Y%m%d/HDF5_LSASAF_MSG_SZA_MSG-Disk_%Y%m%d0330.h5',
 '/cnrm/vegeo/SAT/DATA/MSG/NRT-Operational/HDF5_LSASAF_MSG_VAA_MSG-Disk_201601151200.h5',
 '/cnrm/vegeo/SAT/DATA/MSG/NRT-Operational/HDF5_LSASAF_MSG_VZA_MSG-Disk_201601151200.h5',
 '/cnrm/vegeo/SAT/DATA/MSG/NRT-Operational/AL1/BRF-%Y%m%d/HDF5_LSASAF_MSG_006-BRF_MSG-Disk_%Y%m%d0345.h5',
 '/cnrm/vegeo/SAT/DATA/MSG/NRT-Operational/AL1/BRF-%Y%m%d/HDF5_LSASAF_MSG_008-BRF_MSG-Disk_%Y%m%d0345.h5',
 '/cnrm/vegeo/SAT/DATA/MSG/NRT-Operational/AL1/BRF-%Y%m%d/HDF5_LSASAF_MSG_016-BRF_MSG-Disk_%Y%m%d0345.h5',
 '/cnrm/vegeo/SAT/DATA/MSG/NRT-Operational/INPUTS/ANGLES/ANG-%Y%m%d/HDF5_LSASAF_MSG_SAA_MSG-Disk_%Y%m%d0345.h5',
 '/cnrm/vegeo/SAT/DATA/MSG/NRT-Operational/INPUTS/ANGLES/ANG-%Y%m%d/HDF5_LSASAF_MSG_SZA_MSG-Disk_%Y%m%d0345.h5',
 '/cnrm/vegeo/SAT/DATA/MSG/NRT-Operational/HDF5_LSASAF_MSG_VAA_MSG-Disk_201601151200.h5',
 '/cnrm/vegeo/SAT/DATA/MSG/NRT-Operational/HDF5_LSASAF_MSG_VZA_MSG-Disk_201601151200.h5',
 '/cnrm/vegeo/SAT/DATA/MSG/NRT-Operational/AL1/BRF-%Y%m%d/HDF5_LSASAF_MSG_006-BRF_MSG-Disk_%Y%m%d0400.h5',
 '/cnrm/vegeo/SAT/DATA/MSG/NRT-Operational/AL1/BRF-%Y%m%d/HDF5_LSASAF_MSG_008-BRF_MSG-Disk_%Y%m%d0400.h5',
 '/cnrm/vegeo/SAT/DATA/MSG/NRT-Operational/AL1/BRF-%Y%m%d/HDF5_LSASAF_MSG_016-BRF_MSG-Disk_%Y%m%d0400.h5',
 '/cnrm/vegeo/SAT/DATA/MSG/NRT-Operational/INPUTS/ANGLES/ANG-%Y%m%d/HDF5_LSASAF_MSG_SAA_MSG-Disk_%Y%m%d0400.h5',
 '/cnrm/vegeo/SAT/DATA/MSG/NRT-Operational/INPUTS/ANGLES/ANG-%Y%m%d/HDF5_LSASAF_MSG_SZA_MSG-Disk_%Y%m%d0400.h5',
 '/cnrm/vegeo/SAT/DATA/MSG/NRT-Operational/HDF5_LSASAF_MSG_VAA_MSG-Disk_201601151200.h5',
 '/cnrm/vegeo/SAT/DATA/MSG/NRT-Operational/HDF5_LSASAF_MSG_VZA_MSG-Disk_201601151200.h5',
 '/cnrm/vegeo/SAT/DATA/MSG/NRT-Operational/AL1/BRF-%Y%m%d/HDF5_LSASAF_MSG_006-BRF_MSG-Disk_%Y%m%d0415.h5',
 '/cnrm/vegeo/SAT/DATA/MSG/NRT-Operational/AL1/BRF-%Y%m%d/HDF5_LSASAF_MSG_008-BRF_MSG-Disk_%Y%m%d0415.h5',
 '/cnrm/vegeo/SAT/DATA/MSG/NRT-Operational/AL1/BRF-%Y%m%d/HDF5_LSASAF_MSG_016-BRF_MSG-Disk_%Y%m%d0415.h5',
 '/cnrm/vegeo/SAT/DATA/MSG/NRT-Operational/INPUTS/ANGLES/ANG-%Y%m%d/HDF5_LSASAF_MSG_SAA_MSG-Disk_%Y%m%d0415.h5',
 '/cnrm/vegeo/SAT/DATA/MSG/NRT-Operational/INPUTS/ANGLES/ANG-%Y%m%d/HDF5_LSASAF_MSG_SZA_MSG-Disk_%Y%m%d0415.h5',
 '/cnrm/vegeo/SAT/DATA/MSG/NRT-Operational/HDF5_LSASAF_MSG_VAA_MSG-Disk_201601151200.h5',
 '/cnrm/vegeo/SAT/DATA/MSG/NRT-Operational/HDF5_LSASAF_MSG_VZA_MSG-Disk_201601151200.h5',
 '/cnrm/vegeo/SAT/DATA/MSG/NRT-Operational/AL1/BRF-%Y%m%d/HDF5_LSASAF_MSG_006-BRF_MSG-Disk_%Y%m%d0430.h5',
 '/cnrm/vegeo/SAT/DATA/MSG/NRT-Operational/AL1/BRF-%Y%m%d/HDF5_LSASAF_MSG_008-BRF_MSG-Disk_%Y%m%d0430.h5',
 '/cnrm/vegeo/SAT/DATA/MSG/NRT-Operational/AL1/BRF-%Y%m%d/HDF5_LSASAF_MSG_016-BRF_MSG-Disk_%Y%m%d0430.h5',
 '/cnrm/vegeo/SAT/DATA/MSG/NRT-Operational/INPUTS/ANGLES/ANG-%Y%m%d/HDF5_LSASAF_MSG_SAA_MSG-Disk_%Y%m%d0430.h5',
 '/cnrm/vegeo/SAT/DATA/MSG/NRT-Operational/INPUTS/ANGLES/ANG-%Y%m%d/HDF5_LSASAF_MSG_SZA_MSG-Disk_%Y%m%d0430.h5',
 '/cnrm/vegeo/SAT/DATA/MSG/NRT-Operational/HDF5_LSASAF_MSG_VAA_MSG-Disk_201601151200.h5',
 '/cnrm/vegeo/SAT/DATA/MSG/NRT-Operational/HDF5_LSASAF_MSG_VZA_MSG-Disk_201601151200.h5',
 '/cnrm/vegeo/SAT/DATA/MSG/NRT-Operational/AL1/BRF-%Y%m%d/HDF5_LSASAF_MSG_006-BRF_MSG-Disk_%Y%m%d0445.h5',
 '/cnrm/vegeo/SAT/DATA/MSG/NRT-Operational/AL1/BRF-%Y%m%d/HDF5_LSASAF_MSG_008-BRF_MSG-Disk_%Y%m%d0445.h5',
 '/cnrm/vegeo/SAT/DATA/MSG/NRT-Operational/AL1/BRF-%Y%m%d/HDF5_LSASAF_MSG_016-BRF_MSG-Disk_%Y%m%d0445.h5',
 '/cnrm/vegeo/SAT/DATA/MSG/NRT-Operational/INPUTS/ANGLES/ANG-%Y%m%d/HDF5_LSASAF_MSG_SAA_MSG-Disk_%Y%m%d0445.h5',
 '/cnrm/vegeo/SAT/DATA/MSG/NRT-Operational/INPUTS/ANGLES/ANG-%Y%m%d/HDF5_LSASAF_MSG_SZA_MSG-Disk_%Y%m%d0445.h5',
 '/cnrm/vegeo/SAT/DATA/MSG/NRT-Operational/HDF5_LSASAF_MSG_VAA_MSG-Disk_201601151200.h5',
 '/cnrm/vegeo/SAT/DATA/MSG/NRT-Operational/HDF5_LSASAF_MSG_VZA_MSG-Disk_201601151200.h5',
 '/cnrm/vegeo/SAT/DATA/MSG/NRT-Operational/AL1/BRF-%Y%m%d/HDF5_LSASAF_MSG_006-BRF_MSG-Disk_%Y%m%d0500.h5',
 '/cnrm/vegeo/SAT/DATA/MSG/NRT-Operational/AL1/BRF-%Y%m%d/HDF5_LSASAF_MSG_008-BRF_MSG-Disk_%Y%m%d0500.h5',
 '/cnrm/vegeo/SAT/DATA/MSG/NRT-Operational/AL1/BRF-%Y%m%d/HDF5_LSASAF_MSG_016-BRF_MSG-Disk_%Y%m%d0500.h5',
 '/cnrm/vegeo/SAT/DATA/MSG/NRT-Operational/INPUTS/ANGLES/ANG-%Y%m%d/HDF5_LSASAF_MSG_SAA_MSG-Disk_%Y%m%d0500.h5',
 '/cnrm/vegeo/SAT/DATA/MSG/NRT-Operational/INPUTS/ANGLES/ANG-%Y%m%d/HDF5_LSASAF_MSG_SZA_MSG-Disk_%Y%m%d0500.h5',
 '/cnrm/vegeo/SAT/DATA/MSG/NRT-Operational/HDF5_LSASAF_MSG_VAA_MSG-Disk_201601151200.h5',
 '/cnrm/vegeo/SAT/DATA/MSG/NRT-Operational/HDF5_LSASAF_MSG_VZA_MSG-Disk_201601151200.h5',
 '/cnrm/vegeo/SAT/DATA/MSG/NRT-Operational/AL1/BRF-%Y%m%d/HDF5_LSASAF_MSG_006-BRF_MSG-Disk_%Y%m%d0515.h5',
 '/cnrm/vegeo/SAT/DATA/MSG/NRT-Operational/AL1/BRF-%Y%m%d/HDF5_LSASAF_MSG_008-BRF_MSG-Disk_%Y%m%d0515.h5',
 '/cnrm/vegeo/SAT/DATA/MSG/NRT-Operational/AL1/BRF-%Y%m%d/HDF5_LSASAF_MSG_016-BRF_MSG-Disk_%Y%m%d0515.h5',
 '/cnrm/vegeo/SAT/DATA/MSG/NRT-Operational/INPUTS/ANGLES/ANG-%Y%m%d/HDF5_LSASAF_MSG_SAA_MSG-Disk_%Y%m%d0515.h5',
 '/cnrm/vegeo/SAT/DATA/MSG/NRT-Operational/INPUTS/ANGLES/ANG-%Y%m%d/HDF5_LSASAF_MSG_SZA_MSG-Disk_%Y%m%d0515.h5',
 '/cnrm/vegeo/SAT/DATA/MSG/NRT-Operational/HDF5_LSASAF_MSG_VAA_MSG-Disk_201601151200.h5',
 '/cnrm/vegeo/SAT/DATA/MSG/NRT-Operational/HDF5_LSASAF_MSG_VZA_MSG-Disk_201601151200.h5',
 '/cnrm/vegeo/SAT/DATA/MSG/NRT-Operational/AL1/BRF-%Y%m%d/HDF5_LSASAF_MSG_006-BRF_MSG-Disk_%Y%m%d0530.h5',
 '/cnrm/vegeo/SAT/DATA/MSG/NRT-Operational/AL1/BRF-%Y%m%d/HDF5_LSASAF_MSG_008-BRF_MSG-Disk_%Y%m%d0530.h5',
 '/cnrm/vegeo/SAT/DATA/MSG/NRT-Operational/AL1/BRF-%Y%m%d/HDF5_LSASAF_MSG_016-BRF_MSG-Disk_%Y%m%d0530.h5',
 '/cnrm/vegeo/SAT/DATA/MSG/NRT-Operational/INPUTS/ANGLES/ANG-%Y%m%d/HDF5_LSASAF_MSG_SAA_MSG-Disk_%Y%m%d0530.h5',
 '/cnrm/vegeo/SAT/DATA/MSG/NRT-Operational/INPUTS/ANGLES/ANG-%Y%m%d/HDF5_LSASAF_MSG_SZA_MSG-Disk_%Y%m%d0530.h5',
 '/cnrm/vegeo/SAT/DATA/MSG/NRT-Operational/HDF5_LSASAF_MSG_VAA_MSG-Disk_201601151200.h5',
 '/cnrm/vegeo/SAT/DATA/MSG/NRT-Operational/HDF5_LSASAF_MSG_VZA_MSG-Disk_201601151200.h5',
 '/cnrm/vegeo/SAT/DATA/MSG/NRT-Operational/AL1/BRF-%Y%m%d/HDF5_LSASAF_MSG_006-BRF_MSG-Disk_%Y%m%d0545.h5',
 '/cnrm/vegeo/SAT/DATA/MSG/NRT-Operational/AL1/BRF-%Y%m%d/HDF5_LSASAF_MSG_008-BRF_MSG-Disk_%Y%m%d0545.h5',
 '/cnrm/vegeo/SAT/DATA/MSG/NRT-Operational/AL1/BRF-%Y%m%d/HDF5_LSASAF_MSG_016-BRF_MSG-Disk_%Y%m%d0545.h5',
 '/cnrm/vegeo/SAT/DATA/MSG/NRT-Operational/INPUTS/ANGLES/ANG-%Y%m%d/HDF5_LSASAF_MSG_SAA_MSG-Disk_%Y%m%d0545.h5',
 '/cnrm/vegeo/SAT/DATA/MSG/NRT-Operational/INPUTS/ANGLES/ANG-%Y%m%d/HDF5_LSASAF_MSG_SZA_MSG-Disk_%Y%m%d0545.h5',
 '/cnrm/vegeo/SAT/DATA/MSG/NRT-Operational/HDF5_LSASAF_MSG_VAA_MSG-Disk_201601151200.h5',
 '/cnrm/vegeo/SAT/DATA/MSG/NRT-Operational/HDF5_LSASAF_MSG_VZA_MSG-Disk_201601151200.h5',
 '/cnrm/vegeo/SAT/DATA/MSG/NRT-Operational/AL1/BRF-%Y%m%d/HDF5_LSASAF_MSG_006-BRF_MSG-Disk_%Y%m%d0600.h5',
 '/cnrm/vegeo/SAT/DATA/MSG/NRT-Operational/AL1/BRF-%Y%m%d/HDF5_LSASAF_MSG_008-BRF_MSG-Disk_%Y%m%d0600.h5',
 '/cnrm/vegeo/SAT/DATA/MSG/NRT-Operational/AL1/BRF-%Y%m%d/HDF5_LSASAF_MSG_016-BRF_MSG-Disk_%Y%m%d0600.h5',
 '/cnrm/vegeo/SAT/DATA/MSG/NRT-Operational/INPUTS/ANGLES/ANG-%Y%m%d/HDF5_LSASAF_MSG_SAA_MSG-Disk_%Y%m%d0600.h5',
 '/cnrm/vegeo/SAT/DATA/MSG/NRT-Operational/INPUTS/ANGLES/ANG-%Y%m%d/HDF5_LSASAF_MSG_SZA_MSG-Disk_%Y%m%d0600.h5',
 '/cnrm/vegeo/SAT/DATA/MSG/NRT-Operational/HDF5_LSASAF_MSG_VAA_MSG-Disk_201601151200.h5',
 '/cnrm/vegeo/SAT/DATA/MSG/NRT-Operational/HDF5_LSASAF_MSG_VZA_MSG-Disk_201601151200.h5',
 '/cnrm/vegeo/SAT/DATA/MSG/NRT-Operational/AL1/BRF-%Y%m%d/HDF5_LSASAF_MSG_006-BRF_MSG-Disk_%Y%m%d0615.h5',
 '/cnrm/vegeo/SAT/DATA/MSG/NRT-Operational/AL1/BRF-%Y%m%d/HDF5_LSASAF_MSG_008-BRF_MSG-Disk_%Y%m%d0615.h5',
 '/cnrm/vegeo/SAT/DATA/MSG/NRT-Operational/AL1/BRF-%Y%m%d/HDF5_LSASAF_MSG_016-BRF_MSG-Disk_%Y%m%d0615.h5',
 '/cnrm/vegeo/SAT/DATA/MSG/NRT-Operational/INPUTS/ANGLES/ANG-%Y%m%d/HDF5_LSASAF_MSG_SAA_MSG-Disk_%Y%m%d0615.h5',
 '/cnrm/vegeo/SAT/DATA/MSG/NRT-Operational/INPUTS/ANGLES/ANG-%Y%m%d/HDF5_LSASAF_MSG_SZA_MSG-Disk_%Y%m%d0615.h5',
 '/cnrm/vegeo/SAT/DATA/MSG/NRT-Operational/HDF5_LSASAF_MSG_VAA_MSG-Disk_201601151200.h5',
 '/cnrm/vegeo/SAT/DATA/MSG/NRT-Operational/HDF5_LSASAF_MSG_VZA_MSG-Disk_201601151200.h5',
 '/cnrm/vegeo/SAT/DATA/MSG/NRT-Operational/AL1/BRF-%Y%m%d/HDF5_LSASAF_MSG_006-BRF_MSG-Disk_%Y%m%d0630.h5',
 '/cnrm/vegeo/SAT/DATA/MSG/NRT-Operational/AL1/BRF-%Y%m%d/HDF5_LSASAF_MSG_008-BRF_MSG-Disk_%Y%m%d0630.h5',
 '/cnrm/vegeo/SAT/DATA/MSG/NRT-Operational/AL1/BRF-%Y%m%d/HDF5_LSASAF_MSG_016-BRF_MSG-Disk_%Y%m%d0630.h5',
 '/cnrm/vegeo/SAT/DATA/MSG/NRT-Operational/INPUTS/ANGLES/ANG-%Y%m%d/HDF5_LSASAF_MSG_SAA_MSG-Disk_%Y%m%d0630.h5',
 '/cnrm/vegeo/SAT/DATA/MSG/NRT-Operational/INPUTS/ANGLES/ANG-%Y%m%d/HDF5_LSASAF_MSG_SZA_MSG-Disk_%Y%m%d0630.h5',
 '/cnrm/vegeo/SAT/DATA/MSG/NRT-Operational/HDF5_LSASAF_MSG_VAA_MSG-Disk_201601151200.h5',
 '/cnrm/vegeo/SAT/DATA/MSG/NRT-Operational/HDF5_LSASAF_MSG_VZA_MSG-Disk_201601151200.h5',
 '/cnrm/vegeo/SAT/DATA/MSG/NRT-Operational/AL1/BRF-%Y%m%d/HDF5_LSASAF_MSG_006-BRF_MSG-Disk_%Y%m%d0645.h5',
 '/cnrm/vegeo/SAT/DATA/MSG/NRT-Operational/AL1/BRF-%Y%m%d/HDF5_LSASAF_MSG_008-BRF_MSG-Disk_%Y%m%d0645.h5',
 '/cnrm/vegeo/SAT/DATA/MSG/NRT-Operational/AL1/BRF-%Y%m%d/HDF5_LSASAF_MSG_016-BRF_MSG-Disk_%Y%m%d0645.h5',
 '/cnrm/vegeo/SAT/DATA/MSG/NRT-Operational/INPUTS/ANGLES/ANG-%Y%m%d/HDF5_LSASAF_MSG_SAA_MSG-Disk_%Y%m%d0645.h5',
 '/cnrm/vegeo/SAT/DATA/MSG/NRT-Operational/INPUTS/ANGLES/ANG-%Y%m%d/HDF5_LSASAF_MSG_SZA_MSG-Disk_%Y%m%d0645.h5',
 '/cnrm/vegeo/SAT/DATA/MSG/NRT-Operational/HDF5_LSASAF_MSG_VAA_MSG-Disk_201601151200.h5',
 '/cnrm/vegeo/SAT/DATA/MSG/NRT-Operational/HDF5_LSASAF_MSG_VZA_MSG-Disk_201601151200.h5',
 '/cnrm/vegeo/SAT/DATA/MSG/NRT-Operational/AL1/BRF-%Y%m%d/HDF5_LSASAF_MSG_006-BRF_MSG-Disk_%Y%m%d0700.h5',
 '/cnrm/vegeo/SAT/DATA/MSG/NRT-Operational/AL1/BRF-%Y%m%d/HDF5_LSASAF_MSG_008-BRF_MSG-Disk_%Y%m%d0700.h5',
 '/cnrm/vegeo/SAT/DATA/MSG/NRT-Operational/AL1/BRF-%Y%m%d/HDF5_LSASAF_MSG_016-BRF_MSG-Disk_%Y%m%d0700.h5',
 '/cnrm/vegeo/SAT/DATA/MSG/NRT-Operational/INPUTS/ANGLES/ANG-%Y%m%d/HDF5_LSASAF_MSG_SAA_MSG-Disk_%Y%m%d0700.h5',
 '/cnrm/vegeo/SAT/DATA/MSG/NRT-Operational/INPUTS/ANGLES/ANG-%Y%m%d/HDF5_LSASAF_MSG_SZA_MSG-Disk_%Y%m%d0700.h5',
 '/cnrm/vegeo/SAT/DATA/MSG/NRT-Operational/HDF5_LSASAF_MSG_VAA_MSG-Disk_201601151200.h5',
 '/cnrm/vegeo/SAT/DATA/MSG/NRT-Operational/HDF5_LSASAF_MSG_VZA_MSG-Disk_201601151200.h5',
 '/cnrm/vegeo/SAT/DATA/MSG/NRT-Operational/AL1/BRF-%Y%m%d/HDF5_LSASAF_MSG_006-BRF_MSG-Disk_%Y%m%d0715.h5',
 '/cnrm/vegeo/SAT/DATA/MSG/NRT-Operational/AL1/BRF-%Y%m%d/HDF5_LSASAF_MSG_008-BRF_MSG-Disk_%Y%m%d0715.h5',
 '/cnrm/vegeo/SAT/DATA/MSG/NRT-Operational/AL1/BRF-%Y%m%d/HDF5_LSASAF_MSG_016-BRF_MSG-Disk_%Y%m%d0715.h5',
 '/cnrm/vegeo/SAT/DATA/MSG/NRT-Operational/INPUTS/ANGLES/ANG-%Y%m%d/HDF5_LSASAF_MSG_SAA_MSG-Disk_%Y%m%d0715.h5',
 '/cnrm/vegeo/SAT/DATA/MSG/NRT-Operational/INPUTS/ANGLES/ANG-%Y%m%d/HDF5_LSASAF_MSG_SZA_MSG-Disk_%Y%m%d0715.h5',
 '/cnrm/vegeo/SAT/DATA/MSG/NRT-Operational/HDF5_LSASAF_MSG_VAA_MSG-Disk_201601151200.h5',
 '/cnrm/vegeo/SAT/DATA/MSG/NRT-Operational/HDF5_LSASAF_MSG_VZA_MSG-Disk_201601151200.h5',
 '/cnrm/vegeo/SAT/DATA/MSG/NRT-Operational/AL1/BRF-%Y%m%d/HDF5_LSASAF_MSG_006-BRF_MSG-Disk_%Y%m%d0730.h5',
 '/cnrm/vegeo/SAT/DATA/MSG/NRT-Operational/AL1/BRF-%Y%m%d/HDF5_LSASAF_MSG_008-BRF_MSG-Disk_%Y%m%d0730.h5',
 '/cnrm/vegeo/SAT/DATA/MSG/NRT-Operational/AL1/BRF-%Y%m%d/HDF5_LSASAF_MSG_016-BRF_MSG-Disk_%Y%m%d0730.h5',
 '/cnrm/vegeo/SAT/DATA/MSG/NRT-Operational/INPUTS/ANGLES/ANG-%Y%m%d/HDF5_LSASAF_MSG_SAA_MSG-Disk_%Y%m%d0730.h5',
 '/cnrm/vegeo/SAT/DATA/MSG/NRT-Operational/INPUTS/ANGLES/ANG-%Y%m%d/HDF5_LSASAF_MSG_SZA_MSG-Disk_%Y%m%d0730.h5',
 '/cnrm/vegeo/SAT/DATA/MSG/NRT-Operational/HDF5_LSASAF_MSG_VAA_MSG-Disk_201601151200.h5',
 '/cnrm/vegeo/SAT/DATA/MSG/NRT-Operational/HDF5_LSASAF_MSG_VZA_MSG-Disk_201601151200.h5',
 '/cnrm/vegeo/SAT/DATA/MSG/NRT-Operational/AL1/BRF-%Y%m%d/HDF5_LSASAF_MSG_006-BRF_MSG-Disk_%Y%m%d0745.h5',
 '/cnrm/vegeo/SAT/DATA/MSG/NRT-Operational/AL1/BRF-%Y%m%d/HDF5_LSASAF_MSG_008-BRF_MSG-Disk_%Y%m%d0745.h5',
 '/cnrm/vegeo/SAT/DATA/MSG/NRT-Operational/AL1/BRF-%Y%m%d/HDF5_LSASAF_MSG_016-BRF_MSG-Disk_%Y%m%d0745.h5',
 '/cnrm/vegeo/SAT/DATA/MSG/NRT-Operational/INPUTS/ANGLES/ANG-%Y%m%d/HDF5_LSASAF_MSG_SAA_MSG-Disk_%Y%m%d0745.h5',
 '/cnrm/vegeo/SAT/DATA/MSG/NRT-Operational/INPUTS/ANGLES/ANG-%Y%m%d/HDF5_LSASAF_MSG_SZA_MSG-Disk_%Y%m%d0745.h5',
 '/cnrm/vegeo/SAT/DATA/MSG/NRT-Operational/HDF5_LSASAF_MSG_VAA_MSG-Disk_201601151200.h5',
 '/cnrm/vegeo/SAT/DATA/MSG/NRT-Operational/HDF5_LSASAF_MSG_VZA_MSG-Disk_201601151200.h5',
 '/cnrm/vegeo/SAT/DATA/MSG/NRT-Operational/AL1/BRF-%Y%m%d/HDF5_LSASAF_MSG_006-BRF_MSG-Disk_%Y%m%d0800.h5',
 '/cnrm/vegeo/SAT/DATA/MSG/NRT-Operational/AL1/BRF-%Y%m%d/HDF5_LSASAF_MSG_008-BRF_MSG-Disk_%Y%m%d0800.h5',
 '/cnrm/vegeo/SAT/DATA/MSG/NRT-Operational/AL1/BRF-%Y%m%d/HDF5_LSASAF_MSG_016-BRF_MSG-Disk_%Y%m%d0800.h5',
 '/cnrm/vegeo/SAT/DATA/MSG/NRT-Operational/INPUTS/ANGLES/ANG-%Y%m%d/HDF5_LSASAF_MSG_SAA_MSG-Disk_%Y%m%d0800.h5',
 '/cnrm/vegeo/SAT/DATA/MSG/NRT-Operational/INPUTS/ANGLES/ANG-%Y%m%d/HDF5_LSASAF_MSG_SZA_MSG-Disk_%Y%m%d0800.h5',
 '/cnrm/vegeo/SAT/DATA/MSG/NRT-Operational/HDF5_LSASAF_MSG_VAA_MSG-Disk_201601151200.h5',
 '/cnrm/vegeo/SAT/DATA/MSG/NRT-Operational/HDF5_LSASAF_MSG_VZA_MSG-Disk_201601151200.h5',
 '/cnrm/vegeo/SAT/DATA/MSG/NRT-Operational/AL1/BRF-%Y%m%d/HDF5_LSASAF_MSG_006-BRF_MSG-Disk_%Y%m%d0815.h5',
 '/cnrm/vegeo/SAT/DATA/MSG/NRT-Operational/AL1/BRF-%Y%m%d/HDF5_LSASAF_MSG_008-BRF_MSG-Disk_%Y%m%d0815.h5',
 '/cnrm/vegeo/SAT/DATA/MSG/NRT-Operational/AL1/BRF-%Y%m%d/HDF5_LSASAF_MSG_016-BRF_MSG-Disk_%Y%m%d0815.h5',
 '/cnrm/vegeo/SAT/DATA/MSG/NRT-Operational/INPUTS/ANGLES/ANG-%Y%m%d/HDF5_LSASAF_MSG_SAA_MSG-Disk_%Y%m%d0815.h5',
 '/cnrm/vegeo/SAT/DATA/MSG/NRT-Operational/INPUTS/ANGLES/ANG-%Y%m%d/HDF5_LSASAF_MSG_SZA_MSG-Disk_%Y%m%d0815.h5',
 '/cnrm/vegeo/SAT/DATA/MSG/NRT-Operational/HDF5_LSASAF_MSG_VAA_MSG-Disk_201601151200.h5',
 '/cnrm/vegeo/SAT/DATA/MSG/NRT-Operational/HDF5_LSASAF_MSG_VZA_MSG-Disk_201601151200.h5',
 '/cnrm/vegeo/SAT/DATA/MSG/NRT-Operational/AL1/BRF-%Y%m%d/HDF5_LSASAF_MSG_006-BRF_MSG-Disk_%Y%m%d0830.h5',
 '/cnrm/vegeo/SAT/DATA/MSG/NRT-Operational/AL1/BRF-%Y%m%d/HDF5_LSASAF_MSG_008-BRF_MSG-Disk_%Y%m%d0830.h5',
 '/cnrm/vegeo/SAT/DATA/MSG/NRT-Operational/AL1/BRF-%Y%m%d/HDF5_LSASAF_MSG_016-BRF_MSG-Disk_%Y%m%d0830.h5',
 '/cnrm/vegeo/SAT/DATA/MSG/NRT-Operational/INPUTS/ANGLES/ANG-%Y%m%d/HDF5_LSASAF_MSG_SAA_MSG-Disk_%Y%m%d0830.h5',
 '/cnrm/vegeo/SAT/DATA/MSG/NRT-Operational/INPUTS/ANGLES/ANG-%Y%m%d/HDF5_LSASAF_MSG_SZA_MSG-Disk_%Y%m%d0830.h5',
 '/cnrm/vegeo/SAT/DATA/MSG/NRT-Operational/HDF5_LSASAF_MSG_VAA_MSG-Disk_201601151200.h5',
 '/cnrm/vegeo/SAT/DATA/MSG/NRT-Operational/HDF5_LSASAF_MSG_VZA_MSG-Disk_201601151200.h5',
 '/cnrm/vegeo/SAT/DATA/MSG/NRT-Operational/AL1/BRF-%Y%m%d/HDF5_LSASAF_MSG_006-BRF_MSG-Disk_%Y%m%d0845.h5',
 '/cnrm/vegeo/SAT/DATA/MSG/NRT-Operational/AL1/BRF-%Y%m%d/HDF5_LSASAF_MSG_008-BRF_MSG-Disk_%Y%m%d0845.h5',
 '/cnrm/vegeo/SAT/DATA/MSG/NRT-Operational/AL1/BRF-%Y%m%d/HDF5_LSASAF_MSG_016-BRF_MSG-Disk_%Y%m%d0845.h5',
 '/cnrm/vegeo/SAT/DATA/MSG/NRT-Operational/INPUTS/ANGLES/ANG-%Y%m%d/HDF5_LSASAF_MSG_SAA_MSG-Disk_%Y%m%d0845.h5',
 '/cnrm/vegeo/SAT/DATA/MSG/NRT-Operational/INPUTS/ANGLES/ANG-%Y%m%d/HDF5_LSASAF_MSG_SZA_MSG-Disk_%Y%m%d0845.h5',
 '/cnrm/vegeo/SAT/DATA/MSG/NRT-Operational/HDF5_LSASAF_MSG_VAA_MSG-Disk_201601151200.h5',
 '/cnrm/vegeo/SAT/DATA/MSG/NRT-Operational/HDF5_LSASAF_MSG_VZA_MSG-Disk_201601151200.h5',
 '/cnrm/vegeo/SAT/DATA/MSG/NRT-Operational/AL1/BRF-%Y%m%d/HDF5_LSASAF_MSG_006-BRF_MSG-Disk_%Y%m%d0900.h5',
 '/cnrm/vegeo/SAT/DATA/MSG/NRT-Operational/AL1/BRF-%Y%m%d/HDF5_LSASAF_MSG_008-BRF_MSG-Disk_%Y%m%d0900.h5',
 '/cnrm/vegeo/SAT/DATA/MSG/NRT-Operational/AL1/BRF-%Y%m%d/HDF5_LSASAF_MSG_016-BRF_MSG-Disk_%Y%m%d0900.h5',
 '/cnrm/vegeo/SAT/DATA/MSG/NRT-Operational/INPUTS/ANGLES/ANG-%Y%m%d/HDF5_LSASAF_MSG_SAA_MSG-Disk_%Y%m%d0900.h5',
 '/cnrm/vegeo/SAT/DATA/MSG/NRT-Operational/INPUTS/ANGLES/ANG-%Y%m%d/HDF5_LSASAF_MSG_SZA_MSG-Disk_%Y%m%d0900.h5',
 '/cnrm/vegeo/SAT/DATA/MSG/NRT-Operational/HDF5_LSASAF_MSG_VAA_MSG-Disk_201601151200.h5',
 '/cnrm/vegeo/SAT/DATA/MSG/NRT-Operational/HDF5_LSASAF_MSG_VZA_MSG-Disk_201601151200.h5',
 '/cnrm/vegeo/SAT/DATA/MSG/NRT-Operational/AL1/BRF-%Y%m%d/HDF5_LSASAF_MSG_006-BRF_MSG-Disk_%Y%m%d0915.h5',
 '/cnrm/vegeo/SAT/DATA/MSG/NRT-Operational/AL1/BRF-%Y%m%d/HDF5_LSASAF_MSG_008-BRF_MSG-Disk_%Y%m%d0915.h5',
 '/cnrm/vegeo/SAT/DATA/MSG/NRT-Operational/AL1/BRF-%Y%m%d/HDF5_LSASAF_MSG_016-BRF_MSG-Disk_%Y%m%d0915.h5',
 '/cnrm/vegeo/SAT/DATA/MSG/NRT-Operational/INPUTS/ANGLES/ANG-%Y%m%d/HDF5_LSASAF_MSG_SAA_MSG-Disk_%Y%m%d0915.h5',
 '/cnrm/vegeo/SAT/DATA/MSG/NRT-Operational/INPUTS/ANGLES/ANG-%Y%m%d/HDF5_LSASAF_MSG_SZA_MSG-Disk_%Y%m%d0915.h5',
 '/cnrm/vegeo/SAT/DATA/MSG/NRT-Operational/HDF5_LSASAF_MSG_VAA_MSG-Disk_201601151200.h5',
 '/cnrm/vegeo/SAT/DATA/MSG/NRT-Operational/HDF5_LSASAF_MSG_VZA_MSG-Disk_201601151200.h5',
 '/cnrm/vegeo/SAT/DATA/MSG/NRT-Operational/AL1/BRF-%Y%m%d/HDF5_LSASAF_MSG_006-BRF_MSG-Disk_%Y%m%d0930.h5',
 '/cnrm/vegeo/SAT/DATA/MSG/NRT-Operational/AL1/BRF-%Y%m%d/HDF5_LSASAF_MSG_008-BRF_MSG-Disk_%Y%m%d0930.h5',
 '/cnrm/vegeo/SAT/DATA/MSG/NRT-Operational/AL1/BRF-%Y%m%d/HDF5_LSASAF_MSG_016-BRF_MSG-Disk_%Y%m%d0930.h5',
 '/cnrm/vegeo/SAT/DATA/MSG/NRT-Operational/INPUTS/ANGLES/ANG-%Y%m%d/HDF5_LSASAF_MSG_SAA_MSG-Disk_%Y%m%d0930.h5',
 '/cnrm/vegeo/SAT/DATA/MSG/NRT-Operational/INPUTS/ANGLES/ANG-%Y%m%d/HDF5_LSASAF_MSG_SZA_MSG-Disk_%Y%m%d0930.h5',
 '/cnrm/vegeo/SAT/DATA/MSG/NRT-Operational/HDF5_LSASAF_MSG_VAA_MSG-Disk_201601151200.h5',
 '/cnrm/vegeo/SAT/DATA/MSG/NRT-Operational/HDF5_LSASAF_MSG_VZA_MSG-Disk_201601151200.h5',
 '/cnrm/vegeo/SAT/DATA/MSG/NRT-Operational/AL1/BRF-%Y%m%d/HDF5_LSASAF_MSG_006-BRF_MSG-Disk_%Y%m%d0945.h5',
 '/cnrm/vegeo/SAT/DATA/MSG/NRT-Operational/AL1/BRF-%Y%m%d/HDF5_LSASAF_MSG_008-BRF_MSG-Disk_%Y%m%d0945.h5',
 '/cnrm/vegeo/SAT/DATA/MSG/NRT-Operational/AL1/BRF-%Y%m%d/HDF5_LSASAF_MSG_016-BRF_MSG-Disk_%Y%m%d0945.h5',
 '/cnrm/vegeo/SAT/DATA/MSG/NRT-Operational/INPUTS/ANGLES/ANG-%Y%m%d/HDF5_LSASAF_MSG_SAA_MSG-Disk_%Y%m%d0945.h5',
 '/cnrm/vegeo/SAT/DATA/MSG/NRT-Operational/INPUTS/ANGLES/ANG-%Y%m%d/HDF5_LSASAF_MSG_SZA_MSG-Disk_%Y%m%d0945.h5',
 '/cnrm/vegeo/SAT/DATA/MSG/NRT-Operational/HDF5_LSASAF_MSG_VAA_MSG-Disk_201601151200.h5',
 '/cnrm/vegeo/SAT/DATA/MSG/NRT-Operational/HDF5_LSASAF_MSG_VZA_MSG-Disk_201601151200.h5',
 '/cnrm/vegeo/SAT/DATA/MSG/NRT-Operational/AL1/BRF-%Y%m%d/HDF5_LSASAF_MSG_006-BRF_MSG-Disk_%Y%m%d1000.h5',
 '/cnrm/vegeo/SAT/DATA/MSG/NRT-Operational/AL1/BRF-%Y%m%d/HDF5_LSASAF_MSG_008-BRF_MSG-Disk_%Y%m%d1000.h5',