 &NAM_ALG_MODES
 MODE      = 1
 /
 &NAM_ALG_INPUT_FILES_PATH
 YFILEINP    = 'input/HDF5_LSASAF_MSG_LAT_Disk_201412091000',
 'input/HDF5_LSASAF_MSG_AL-C1-K012_Disk_201607312345',
 'input/HDF5_LSASAF_MSG_AL-C1-CK_Disk_201607312345',
 'input/HDF5_LSASAF_MSG_AL-C2-K012_Disk_201607312345',
 'input/HDF5_LSASAF_MSG_AL-C2-CK_Disk_201607312345',
 'input/HDF5_LSASAF_MSG_AL-C3-K012_Disk_201607312345',
 'input/HDF5_LSASAF_MSG_AL-C3-CK_Disk_201607312345',
 '/cnrm/vegeo/pinaultf/experiments/exp2/enable.aerosol.in.al1.smac.x.0.0/data/out-al1//20160801/HDF5_LSASAF_MSG_006-BRF_Disk_201608010000.h5',
 '/cnrm/vegeo/pinaultf/experiments/exp2/enable.aerosol.in.al1.smac.x.0.0/data/out-al1//20160801/HDF5_LSASAF_MSG_008-BRF_Disk_201608010000.h5',
 '/cnrm/vegeo/pinaultf/experiments/exp2/enable.aerosol.in.al1.smac.x.0.0/data/out-al1//20160801/HDF5_LSASAF_MSG_016-BRF_Disk_201608010000.h5',
 '/cnrm/vegeo/pinaultf/data/msg/angles/solar/2016/08/01//HDF5_LSASAF_MSG_SAA_MSG-Disk_201608010000',
 '/cnrm/vegeo/pinaultf/data/msg/angles/solar/2016/08/01//HDF5_LSASAF_MSG_SZA_MSG-Disk_201608010000',
 '/cnrm/vegeo/pinaultf/data/from-ipma/cache/input-al1-2016/MSG//2016/08/01/HDF5_LSASAF_MSG_VAA_MSG-Disk_201608010000',
 '/cnrm/vegeo/pinaultf/data/from-ipma/cache/input-al1-2016/MSG//2016/08/01/HDF5_LSASAF_MSG_VZA_MSG-Disk_201608010000',
 '/cnrm/vegeo/pinaultf/experiments/exp2/enable.aerosol.in.al1.smac.x.0.0/data/out-al1//20160801/HDF5_LSASAF_MSG_006-BRF_Disk_201608010015.h5',
 '/cnrm/vegeo/pinaultf/experiments/exp2/enable.aerosol.in.al1.smac.x.0.0/data/out-al1//20160801/HDF5_LSASAF_MSG_008-BRF_Disk_201608010015.h5',
 '/cnrm/vegeo/pinaultf/experiments/exp2/enable.aerosol.in.al1.smac.x.0.0/data/out-al1//20160801/HDF5_LSASAF_MSG_016-BRF_Disk_201608010015.h5',
 '/cnrm/vegeo/pinaultf/data/msg/angles/solar/2016/08/01//HDF5_LSASAF_MSG_SAA_MSG-Disk_201608010015',
 '/cnrm/vegeo/pinaultf/data/msg/angles/solar/2016/08/01//HDF5_LSASAF_MSG_SZA_MSG-Disk_201608010015',
 '/cnrm/vegeo/pinaultf/data/from-ipma/cache/input-al1-2016/MSG//2016/08/01/HDF5_LSASAF_MSG_VAA_MSG-Disk_201608010015',
 '/cnrm/vegeo/pinaultf/data/from-ipma/cache/input-al1-2016/MSG//2016/08/01/HDF5_LSASAF_MSG_VZA_MSG-Disk_201608010015',
 '/cnrm/vegeo/pinaultf/experiments/exp2/enable.aerosol.in.al1.smac.x.0.0/data/out-al1//20160801/HDF5_LSASAF_MSG_006-BRF_Disk_201608010030.h5',
 '/cnrm/vegeo/pinaultf/experiments/exp2/enable.aerosol.in.al1.smac.x.0.0/data/out-al1//20160801/HDF5_LSASAF_MSG_008-BRF_Disk_201608010030.h5',
 '/cnrm/vegeo/pinaultf/experiments/exp2/enable.aerosol.in.al1.smac.x.0.0/data/out-al1//20160801/HDF5_LSASAF_MSG_016-BRF_Disk_201608010030.h5',
 '/cnrm/vegeo/pinaultf/data/msg/angles/solar/2016/08/01//HDF5_LSASAF_MSG_SAA_MSG-Disk_201608010030',
 '/cnrm/vegeo/pinaultf/data/msg/angles/solar/2016/08/01//HDF5_LSASAF_MSG_SZA_MSG-Disk_201608010030',
 '/cnrm/vegeo/pinaultf/data/from-ipma/cache/input-al1-2016/MSG//2016/08/01/HDF5_LSASAF_MSG_VAA_MSG-Disk_201608010030',
 '/cnrm/vegeo/pinaultf/data/from-ipma/cache/input-al1-2016/MSG//2016/08/01/HDF5_LSASAF_MSG_VZA_MSG-Disk_201608010030',
 '/cnrm/vegeo/pinaultf/experiments/exp2/enable.aerosol.in.al1.smac.x.0.0/data/out-al1//20160801/HDF5_LSASAF_MSG_006-BRF_Disk_201608010045.h5',
 '/cnrm/vegeo/pinaultf/experiments/exp2/enable.aerosol.in.al1.smac.x.0.0/data/out-al1//20160801/HDF5_LSASAF_MSG_008-BRF_Disk_201608010045.h5',
 '/cnrm/vegeo/pinaultf/experiments/exp2/enable.aerosol.in.al1.smac.x.0.0/data/out-al1//20160801/HDF5_LSASAF_MSG_016-BRF_Disk_201608010045.h5',
 '/cnrm/vegeo/pinaultf/data/msg/angles/solar/2016/08/01//HDF5_LSASAF_MSG_SAA_MSG-Disk_201608010045',
 '/cnrm/vegeo/pinaultf/data/msg/angles/solar/2016/08/01//HDF5_LSASAF_MSG_SZA_MSG-Disk_201608010045',
 '/cnrm/vegeo/pinaultf/data/from-ipma/cache/input-al1-2016/MSG//2016/08/01/HDF5_LSASAF_MSG_VAA_MSG-Disk_201608010045',
 '/cnrm/vegeo/pinaultf/data/from-ipma/cache/input-al1-2016/MSG//2016/08/01/HDF5_LSASAF_MSG_VZA_MSG-Disk_201608010045',
 '/cnrm/vegeo/pinaultf/experiments/exp2/enable.aerosol.in.al1.smac.x.0.0/data/out-al1//20160801/HDF5_LSASAF_MSG_006-BRF_Disk_201608010100.h5',
 '/cnrm/vegeo/pinaultf/experiments/exp2/enable.aerosol.in.al1.smac.x.0.0/data/out-al1//20160801/HDF5_LSASAF_MSG_008-BRF_Disk_201608010100.h5',
 '/cnrm/vegeo/pinaultf/experiments/exp2/enable.aerosol.in.al1.smac.x.0.0/data/out-al1//20160801/HDF5_LSASAF_MSG_016-BRF_Disk_201608010100.h5',
 '/cnrm/vegeo/pinaultf/data/msg/angles/solar/2016/08/01//HDF5_LSASAF_MSG_SAA_MSG-Disk_201608010100',
 '/cnrm/vegeo/pinaultf/data/msg/angles/solar/2016/08/01//HDF5_LSASAF_MSG_SZA_MSG-Disk_201608010100',
 '/cnrm/vegeo/pinaultf/data/from-ipma/cache/input-al1-2016/MSG//2016/08/01/HDF5_LSASAF_MSG_VAA_MSG-Disk_201608010100',
 '/cnrm/vegeo/pinaultf/data/from-ipma/cache/input-al1-2016/MSG//2016/08/01/HDF5_LSASAF_MSG_VZA_MSG-Disk_201608010100',
 '/cnrm/vegeo/pinaultf/experiments/exp2/enable.aerosol.in.al1.smac.x.0.0/data/out-al1//20160801/HDF5_LSASAF_MSG_006-BRF_Disk_201608010115.h5',
 '/cnrm/vegeo/pinaultf/experiments/exp2/enable.aerosol.in.al1.smac.x.0.0/data/out-al1//20160801/HDF5_LSASAF_MSG_008-BRF_Disk_201608010115.h5',
 '/cnrm/vegeo/pinaultf/experiments/exp2/enable.aerosol.in.al1.smac.x.0.0/data/out-al1//20160801/HDF5_LSASAF_MSG_016-BRF_Disk_201608010115.h5',
 '/cnrm/vegeo/pinaultf/data/msg/angles/solar/2016/08/01//HDF5_LSASAF_MSG_SAA_MSG-Disk_201608010115',
 '/cnrm/vegeo/pinaultf/data/msg/angles/solar/2016/08/01//HDF5_LSASAF_MSG_SZA_MSG-Disk_201608010115',
 '/cnrm/vegeo/pinaultf/data/from-ipma/cache/input-al1-2016/MSG//2016/08/01/HDF5_LSASAF_MSG_VAA_MSG-Disk_201608010115',
 '/cnrm/vegeo/pinaultf/data/from-ipma/cache/input-al1-2016/MSG//2016/08/01/HDF5_LSASAF_MSG_VZA_MSG-Disk_201608010115',
 '/cnrm/vegeo/pinaultf/experiments/exp2/enable.aerosol.in.al1.smac.x.0.0/data/out-al1//20160801/HDF5_LSASAF_MSG_006-BRF_Disk_201608010130.h5',
 '/cnrm/vegeo/pinaultf/experiments/exp2/enable.aerosol.in.al1.smac.x.0.0/data/out-al1//20160801/HDF5_LSASAF_MSG_008-BRF_Disk_201608010130.h5',
 '/cnrm/vegeo/pinaultf/experiments/exp2/enable.aerosol.in.al1.smac.x.0.0/data/out-al1//20160801/HDF5_LSASAF_MSG_016-BRF_Disk_201608010130.h5',
 '/cnrm/vegeo/pinaultf/data/msg/angles/solar/2016/08/01//HDF5_LSASAF_MSG_SAA_MSG-Disk_201608010130',
 '/cnrm/vegeo/pinaultf/data/msg/angles/solar/2016/08/01//HDF5_LSASAF_MSG_SZA_MSG-Disk_201608010130',
 '/cnrm/vegeo/pinaultf/data/from-ipma/cache/input-al1-2016/MSG//2016/08/01/HDF5_LSASAF_MSG_VAA_MSG-Disk_201608010130',
 '/cnrm/vegeo/pinaultf/data/from-ipma/cache/input-al1-2016/MSG//2016/08/01/HDF5_LSASAF_MSG_VZA_MSG-Disk_201608010130',
 '/cnrm/vegeo/pinaultf/experiments/exp2/enable.aerosol.in.al1.smac.x.0.0/data/out-al1//20160801/HDF5_LSASAF_MSG_006-BRF_Disk_201608010145.h5',
 '/cnrm/vegeo/pinaultf/experiments/exp2/enable.aerosol.in.al1.smac.x.0.0/data/out-al1//20160801/HDF5_LSASAF_MSG_008-BRF_Disk_201608010145.h5',
 '/cnrm/vegeo/pinaultf/experiments/exp2/enable.aerosol.in.al1.smac.x.0.0/data/out-al1//20160801/HDF5_LSASAF_MSG_016-BRF_Disk_201608010145.h5',
 '/cnrm/vegeo/pinaultf/data/msg/angles/solar/2016/08/01//HDF5_LSASAF_MSG_SAA_MSG-Disk_201608010145',
 '/cnrm/vegeo/pinaultf/data/msg/angles/solar/2016/08/01//HDF5_LSASAF_MSG_SZA_MSG-Disk_201608010145',
 '/cnrm/vegeo/pinaultf/data/from-ipma/cache/input-al1-2016/MSG//2016/08/01/HDF5_LSASAF_MSG_VAA_MSG-Disk_201608010145',
 '/cnrm/vegeo/pinaultf/data/from-ipma/cache/input-al1-2016/MSG//2016/08/01/HDF5_LSASAF_MSG_VZA_MSG-Disk_201608010145',
 '/cnrm/vegeo/pinaultf/experiments/exp2/enable.aerosol.in.al1.smac.x.0.0/data/out-al1//20160801/HDF5_LSASAF_MSG_006-BRF_Disk_201608010200.h5',
 '/cnrm/vegeo/pinaultf/experiments/exp2/enable.aerosol.in.al1.smac.x.0.0/data/out-al1//20160801/HDF5_LSASAF_MSG_008-BRF_Disk_201608010200.h5',
 '/cnrm/vegeo/pinaultf/experiments/exp2/enable.aerosol.in.al1.smac.x.0.0/data/out-al1//20160801/HDF5_LSASAF_MSG_016-BRF_Disk_201608010200.h5',
 '/cnrm/vegeo/pinaultf/data/msg/angles/solar/2016/08/01//HDF5_LSASAF_MSG_SAA_MSG-Disk_201608010200',
 '/cnrm/vegeo/pinaultf/data/msg/angles/solar/2016/08/01//HDF5_LSASAF_MSG_SZA_MSG-Disk_201608010200',
 '/cnrm/vegeo/pinaultf/data/from-ipma/cache/input-al1-2016/MSG//2016/08/01/HDF5_LSASAF_MSG_VAA_MSG-Disk_201608010200',
 '/cnrm/vegeo/pinaultf/data/from-ipma/cache/input-al1-2016/MSG//2016/08/01/HDF5_LSASAF_MSG_VZA_MSG-Disk_201608010200',
 '/cnrm/vegeo/pinaultf/experiments/exp2/enable.aerosol.in.al1.smac.x.0.0/data/out-al1//20160801/HDF5_LSASAF_MSG_006-BRF_Disk_201608010215.h5',
 '/cnrm/vegeo/pinaultf/experiments/exp2/enable.aerosol.in.al1.smac.x.0.0/data/out-al1//20160801/HDF5_LSASAF_MSG_008-BRF_Disk_201608010215.h5',
 '/cnrm/vegeo/pinaultf/experiments/exp2/enable.aerosol.in.al1.smac.x.0.0/data/out-al1//20160801/HDF5_LSASAF_MSG_016-BRF_Disk_201608010215.h5',
 '/cnrm/vegeo/pinaultf/data/msg/angles/solar/2016/08/01//HDF5_LSASAF_MSG_SAA_MSG-Disk_201608010215',
 '/cnrm/vegeo/pinaultf/data/msg/angles/solar/2016/08/01//HDF5_LSASAF_MSG_SZA_MSG-Disk_201608010215',
 '/cnrm/vegeo/pinaultf/data/from-ipma/cache/input-al1-2016/MSG//2016/08/01/HDF5_LSASAF_MSG_VAA_MSG-Disk_201608010215',
 '/cnrm/vegeo/pinaultf/data/from-ipma/cache/input-al1-2016/MSG//2016/08/01/HDF5_LSASAF_MSG_VZA_MSG-Disk_201608010215',
 '/cnrm/vegeo/pinaultf/experiments/exp2/enable.aerosol.in.al1.smac.x.0.0/data/out-al1//20160801/HDF5_LSASAF_MSG_006-BRF_Disk_201608010230.h5',
 '/cnrm/vegeo/pinaultf/experiments/exp2/enable.aerosol.in.al1.smac.x.0.0/data/out-al1//20160801/HDF5_LSASAF_MSG_008-BRF_Disk_201608010230.h5',
 '/cnrm/vegeo/pinaultf/experiments/exp2/enable.aerosol.in.al1.smac.x.0.0/data/out-al1//20160801/HDF5_LSASAF_MSG_016-BRF_Disk_201608010230.h5',
 '/cnrm/vegeo/pinaultf/data/msg/angles/solar/2016/08/01//HDF5_LSASAF_MSG_SAA_MSG-Disk_201608010230',
 '/cnrm/vegeo/pinaultf/data/msg/angles/solar/2016/08/01//HDF5_LSASAF_MSG_SZA_MSG-Disk_201608010230',
 '/cnrm/vegeo/pinaultf/data/from-ipma/cache/input-al1-2016/MSG//2016/08/01/HDF5_LSASAF_MSG_VAA_MSG-Disk_201608010230',
 '/cnrm/vegeo/pinaultf/data/from-ipma/cache/input-al1-2016/MSG//2016/08/01/HDF5_LSASAF_MSG_VZA_MSG-Disk_201608010230',
 '/cnrm/vegeo/pinaultf/experiments/exp2/enable.aerosol.in.al1.smac.x.0.0/data/out-al1//20160801/HDF5_LSASAF_MSG_006-BRF_Disk_201608010245.h5',
 '/cnrm/vegeo/pinaultf/experiments/exp2/enable.aerosol.in.al1.smac.x.0.0/data/out-al1//20160801/HDF5_LSASAF_MSG_008-BRF_Disk_201608010245.h5',
 '/cnrm/vegeo/pinaultf/experiments/exp2/enable.aerosol.in.al1.smac.x.0.0/data/out-al1//20160801/HDF5_LSASAF_MSG_016-BRF_Disk_201608010245.h5',
 '/cnrm/vegeo/pinaultf/data/msg/angles/solar/2016/08/01//HDF5_LSASAF_MSG_SAA_MSG-Disk_201608010245',
 '/cnrm/vegeo/pinaultf/data/msg/angles/solar/2016/08/01//HDF5_LSASAF_MSG_SZA_MSG-Disk_201608010245',
 '/cnrm/vegeo/pinaultf/data/from-ipma/cache/input-al1-2016/MSG//2016/08/01/HDF5_LSASAF_MSG_VAA_MSG-Disk_201608010245',
 '/cnrm/vegeo/pinaultf/data/from-ipma/cache/input-al1-2016/MSG//2016/08/01/HDF5_LSASAF_MSG_VZA_MSG-Disk_201608010245',
 '/cnrm/vegeo/pinaultf/experiments/exp2/enable.aerosol.in.al1.smac.x.0.0/data/out-al1//20160801/HDF5_LSASAF_MSG_006-BRF_Disk_201608010300.h5',
 '/cnrm/vegeo/pinaultf/experiments/exp2/enable.aerosol.in.al1.smac.x.0.0/data/out-al1//20160801/HDF5_LSASAF_MSG_008-BRF_Disk_201608010300.h5',
 '/cnrm/vegeo/pinaultf/experiments/exp2/enable.aerosol.in.al1.smac.x.0.0/data/out-al1//20160801/HDF5_LSASAF_MSG_016-BRF_Disk_201608010300.h5',
 '/cnrm/vegeo/pinaultf/data/msg/angles/solar/2016/08/01//HDF5_LSASAF_MSG_SAA_MSG-Disk_201608010300',
 '/cnrm/vegeo/pinaultf/data/msg/angles/solar/2016/08/01//HDF5_LSASAF_MSG_SZA_MSG-Disk_201608010300',
 '/cnrm/vegeo/pinaultf/data/from-ipma/cache/input-al1-2016/MSG//2016/08/01/HDF5_LSASAF_MSG_VAA_MSG-Disk_201608010300',
 '/cnrm/vegeo/pinaultf/data/from-ipma/cache/input-al1-2016/MSG//2016/08/01/HDF5_LSASAF_MSG_VZA_MSG-Disk_201608010300',
 '/cnrm/vegeo/pinaultf/experiments/exp2/enable.aerosol.in.al1.smac.x.0.0/data/out-al1//20160801/HDF5_LSASAF_MSG_006-BRF_Disk_201608010315.h5',
 '/cnrm/vegeo/pinaultf/experiments/exp2/enable.aerosol.in.al1.smac.x.0.0/data/out-al1//20160801/HDF5_LSASAF_MSG_008-BRF_Disk_201608010315.h5',
 '/cnrm/vegeo/pinaultf/experiments/exp2/enable.aerosol.in.al1.smac.x.0.0/data/out-al1//20160801/HDF5_LSASAF_MSG_016-BRF_Disk_201608010315.h5',
 '/cnrm/vegeo/pinaultf/data/msg/angles/solar/2016/08/01//HDF5_LSASAF_MSG_SAA_MSG-Disk_201608010315',
 '/cnrm/vegeo/pinaultf/data/msg/angles/solar/2016/08/01//HDF5_LSASAF_MSG_SZA_MSG-Disk_201608010315',
 '/cnrm/vegeo/pinaultf/data/from-ipma/cache/input-al1-2016/MSG//2016/08/01/HDF5_LSASAF_MSG_VAA_MSG-Disk_201608010315',
 '/cnrm/vegeo/pinaultf/data/from-ipma/cache/input-al1-2016/MSG//2016/08/01/HDF5_LSASAF_MSG_VZA_MSG-Disk_201608010315',
 '/cnrm/vegeo/pinaultf/experiments/exp2/enable.aerosol.in.al1.smac.x.0.0/data/out-al1//20160801/HDF5_LSASAF_MSG_006-BRF_Disk_201608010330.h5',
 '/cnrm/vegeo/pinaultf/experiments/exp2/enable.aerosol.in.al1.smac.x.0.0/data/out-al1//20160801/HDF5_LSASAF_MSG_008-BRF_Disk_201608010330.h5',
 '/cnrm/vegeo/pinaultf/experiments/exp2/enable.aerosol.in.al1.smac.x.0.0/data/out-al1//20160801/HDF5_LSASAF_MSG_016-BRF_Disk_201608010330.h5',
 '/cnrm/vegeo/pinaultf/data/msg/angles/solar/2016/08/01//HDF5_LSASAF_MSG_SAA_MSG-Disk_201608010330',
 '/cnrm/vegeo/pinaultf/data/msg/angles/solar/2016/08/01//HDF5_LSASAF_MSG_SZA_MSG-Disk_201608010330',
 '/cnrm/vegeo/pinaultf/data/from-ipma/cache/input-al1-2016/MSG//2016/08/01/HDF5_LSASAF_MSG_VAA_MSG-Disk_201608010330',
 '/cnrm/vegeo/pinaultf/data/from-ipma/cache/input-al1-2016/MSG//2016/08/01/HDF5_LSASAF_MSG_VZA_MSG-Disk_201608010330',
 '/cnrm/vegeo/pinaultf/experiments/exp2/enable.aerosol.in.al1.smac.x.0.0/data/out-al1//20160801/HDF5_LSASAF_MSG_006-BRF_Disk_201608010345.h5',
 '/cnrm/vegeo/pinaultf/experiments/exp2/enable.aerosol.in.al1.smac.x.0.0/data/out-al1//20160801/HDF5_LSASAF_MSG_008-BRF_Disk_201608010345.h5',
 '/cnrm/vegeo/pinaultf/experiments/exp2/enable.aerosol.in.al1.smac.x.0.0/data/out-al1//20160801/HDF5_LSASAF_MSG_016-BRF_Disk_201608010345.h5',
 '/cnrm/vegeo/pinaultf/data/msg/angles/solar/2016/08/01//HDF5_LSASAF_MSG_SAA_MSG-Disk_201608010345',
 '/cnrm/vegeo/pinaultf/data/msg/angles/solar/2016/08/01//HDF5_LSASAF_MSG_SZA_MSG-Disk_201608010345',
 '/cnrm/vegeo/pinaultf/data/from-ipma/cache/input-al1-2016/MSG//2016/08/01/HDF5_LSASAF_MSG_VAA_MSG-Disk_201608010345',
 '/cnrm/vegeo/pinaultf/data/from-ipma/cache/input-al1-2016/MSG//2016/08/01/HDF5_LSASAF_MSG_VZA_MSG-Disk_201608010345',
 '/cnrm/vegeo/pinaultf/experiments/exp2/enable.aerosol.in.al1.smac.x.0.0/data/out-al1//20160801/HDF5_LSASAF_MSG_006-BRF_Disk_201608010400.h5',
 '/cnrm/vegeo/pinaultf/experiments/exp2/enable.aerosol.in.al1.smac.x.0.0/data/out-al1//20160801/HDF5_LSASAF_MSG_008-BRF_Disk_201608010400.h5',
 '/cnrm/vegeo/pinaultf/experiments/exp2/enable.aerosol.in.al1.smac.x.0.0/data/out-al1//20160801/HDF5_LSASAF_MSG_016-BRF_Disk_201608010400.h5',
 '/cnrm/vegeo/pinaultf/data/msg/angles/solar/2016/08/01//HDF5_LSASAF_MSG_SAA_MSG-Disk_201608010400',
 '/cnrm/vegeo/pinaultf/data/msg/angles/solar/2016/08/01//HDF5_LSASAF_MSG_SZA_MSG-Disk_201608010400',
 '/cnrm/vegeo/pinaultf/data/from-ipma/cache/input-al1-2016/MSG//2016/08/01/HDF5_LSASAF_MSG_VAA_MSG-Disk_201608010400',
 '/cnrm/vegeo/pinaultf/data/from-ipma/cache/input-al1-2016/MSG//2016/08/01/HDF5_LSASAF_MSG_VZA_MSG-Disk_201608010400',
 '/cnrm/vegeo/pinaultf/experiments/exp2/enable.aerosol.in.al1.smac.x.0.0/data/out-al1//20160801/HDF5_LSASAF_MSG_006-BRF_Disk_201608010415.h5',
 '/cnrm/vegeo/pinaultf/experiments/exp2/enable.aerosol.in.al1.smac.x.0.0/data/out-al1//20160801/HDF5_LSASAF_MSG_008-BRF_Disk_201608010415.h5',
 '/cnrm/vegeo/pinaultf/experiments/exp2/enable.aerosol.in.al1.smac.x.0.0/data/out-al1//20160801/HDF5_LSASAF_MSG_016-BRF_Disk_201608010415.h5',
 '/cnrm/vegeo/pinaultf/data/msg/angles/solar/2016/08/01//HDF5_LSASAF_MSG_SAA_MSG-Disk_201608010415',
 '/cnrm/vegeo/pinaultf/data/msg/angles/solar/2016/08/01//HDF5_LSASAF_MSG_SZA_MSG-Disk_201608010415',
 '/cnrm/vegeo/pinaultf/data/from-ipma/cache/input-al1-2016/MSG//2016/08/01/HDF5_LSASAF_MSG_VAA_MSG-Disk_201608010415',
 '/cnrm/vegeo/pinaultf/data/from-ipma/cache/input-al1-2016/MSG//2016/08/01/HDF5_LSASAF_MSG_VZA_MSG-Disk_201608010415',
 '/cnrm/vegeo/pinaultf/experiments/exp2/enable.aerosol.in.al1.smac.x.0.0/data/out-al1//20160801/HDF5_LSASAF_MSG_006-BRF_Disk_201608010430.h5',
 '/cnrm/vegeo/pinaultf/experiments/exp2/enable.aerosol.in.al1.smac.x.0.0/data/out-al1//20160801/HDF5_LSASAF_MSG_008-BRF_Disk_201608010430.h5',
 '/cnrm/vegeo/pinaultf/experiments/exp2/enable.aerosol.in.al1.smac.x.0.0/data/out-al1//20160801/HDF5_LSASAF_MSG_016-BRF_Disk_201608010430.h5',
 '/cnrm/vegeo/pinaultf/data/msg/angles/solar/2016/08/01//HDF5_LSASAF_MSG_SAA_MSG-Disk_201608010430',
 '/cnrm/vegeo/pinaultf/data/msg/angles/solar/2016/08/01//HDF5_LSASAF_MSG_SZA_MSG-Disk_201608010430',
 '/cnrm/vegeo/pinaultf/data/from-ipma/cache/input-al1-2016/MSG//2016/08/01/HDF5_LSASAF_MSG_VAA_MSG-Disk_201608010430',
 '/cnrm/vegeo/pinaultf/data/from-ipma/cache/input-al1-2016/MSG//2016/08/01/HDF5_LSASAF_MSG_VZA_MSG-Disk_201608010430',
 '/cnrm/vegeo/pinaultf/experiments/exp2/enable.aerosol.in.al1.smac.x.0.0/data/out-al1//20160801/HDF5_LSASAF_MSG_006-BRF_Disk_201608010445.h5',
 '/cnrm/vegeo/pinaultf/experiments/exp2/enable.aerosol.in.al1.smac.x.0.0/data/out-al1//20160801/HDF5_LSASAF_MSG_008-BRF_Disk_201608010445.h5',
 '/cnrm/vegeo/pinaultf/experiments/exp2/enable.aerosol.in.al1.smac.x.0.0/data/out-al1//20160801/HDF5_LSASAF_MSG_016-BRF_Disk_201608010445.h5',
 '/cnrm/vegeo/pinaultf/data/msg/angles/solar/2016/08/01//HDF5_LSASAF_MSG_SAA_MSG-Disk_201608010445',
 '/cnrm/vegeo/pinaultf/data/msg/angles/solar/2016/08/01//HDF5_LSASAF_MSG_SZA_MSG-Disk_201608010445',
 '/cnrm/vegeo/pinaultf/data/from-ipma/cache/input-al1-2016/MSG//2016/08/01/HDF5_LSASAF_MSG_VAA_MSG-Disk_201608010445',
 '/cnrm/vegeo/pinaultf/data/from-ipma/cache/input-al1-2016/MSG//2016/08/01/HDF5_LSASAF_MSG_VZA_MSG-Disk_201608010445',
 '/cnrm/vegeo/pinaultf/experiments/exp2/enable.aerosol.in.al1.smac.x.0.0/data/out-al1//20160801/HDF5_LSASAF_MSG_006-BRF_Disk_201608010500.h5',
 '/cnrm/vegeo/pinaultf/experiments/exp2/enable.aerosol.in.al1.smac.x.0.0/data/out-al1//20160801/HDF5_LSASAF_MSG_008-BRF_Disk_201608010500.h5',
 '/cnrm/vegeo/pinaultf/experiments/exp2/enable.aerosol.in.al1.smac.x.0.0/data/out-al1//20160801/HDF5_LSASAF_MSG_016-BRF_Disk_201608010500.h5',
 '/cnrm/vegeo/pinaultf/data/msg/angles/solar/2016/08/01//HDF5_LSASAF_MSG_SAA_MSG-Disk_201608010500',
 '/cnrm/vegeo/pinaultf/data/msg/angles/solar/2016/08/01//HDF5_LSASAF_MSG_SZA_MSG-Disk_201608010500',
 '/cnrm/vegeo/pinaultf/data/from-ipma/cache/input-al1-2016/MSG//2016/08/01/HDF5_LSASAF_MSG_VAA_MSG-Disk_201608010500',
 '/cnrm/vegeo/pinaultf/data/from-ipma/cache/input-al1-2016/MSG//2016/08/01/HDF5_LSASAF_MSG_VZA_MSG-Disk_201608010500',
 '/cnrm/vegeo/pinaultf/experiments/exp2/enable.aerosol.in.al1.smac.x.0.0/data/out-al1//20160801/HDF5_LSASAF_MSG_006-BRF_Disk_201608010515.h5',
 '/cnrm/vegeo/pinaultf/experiments/exp2/enable.aerosol.in.al1.smac.x.0.0/data/out-al1//20160801/HDF5_LSASAF_MSG_008-BRF_Disk_201608010515.h5',
 '/cnrm/vegeo/pinaultf/experiments/exp2/enable.aerosol.in.al1.smac.x.0.0/data/out-al1//20160801/HDF5_LSASAF_MSG_016-BRF_Disk_201608010515.h5',
 '/cnrm/vegeo/pinaultf/data/msg/angles/solar/2016/08/01//HDF5_LSASAF_MSG_SAA_MSG-Disk_201608010515',
 '/cnrm/vegeo/pinaultf/data/msg/angles/solar/2016/08/01//HDF5_LSASAF_MSG_SZA_MSG-Disk_201608010515',
 '/cnrm/vegeo/pinaultf/data/from-ipma/cache/input-al1-2016/MSG//2016/08/01/HDF5_LSASAF_MSG_VAA_MSG-Disk_201608010515',
 '/cnrm/vegeo/pinaultf/data/from-ipma/cache/input-al1-2016/MSG//2016/08/01/HDF5_LSASAF_MSG_VZA_MSG-Disk_201608010515',
 '/cnrm/vegeo/pinaultf/experiments/exp2/enable.aerosol.in.al1.smac.x.0.0/data/out-al1//20160801/HDF5_LSASAF_MSG_006-BRF_Disk_201608010530.h5',
 '/cnrm/vegeo/pinaultf/experiments/exp2/enable.aerosol.in.al1.smac.x.0.0/data/out-al1//20160801/HDF5_LSASAF_MSG_008-BRF_Disk_201608010530.h5',
 '/cnrm/vegeo/pinaultf/experiments/exp2/enable.aerosol.in.al1.smac.x.0.0/data/out-al1//20160801/HDF5_LSASAF_MSG_016-BRF_Disk_201608010530.h5',
 '/cnrm/vegeo/pinaultf/data/msg/angles/solar/2016/08/01//HDF5_LSASAF_MSG_SAA_MSG-Disk_201608010530',
 '/cnrm/vegeo/pinaultf/data/msg/angles/solar/2016/08/01//HDF5_LSASAF_MSG_SZA_MSG-Disk_201608010530',
 '/cnrm/vegeo/pinaultf/data/from-ipma/cache/input-al1-2016/MSG//2016/08/01/HDF5_LSASAF_MSG_VAA_MSG-Disk_201608010530',
 '/cnrm/vegeo/pinaultf/data/from-ipma/cache/input-al1-2016/MSG//2016/08/01/HDF5_LSASAF_MSG_VZA_MSG-Disk_201608010530',
 '/cnrm/vegeo/pinaultf/experiments/exp2/enable.aerosol.in.al1.smac.x.0.0/data/out-al1//20160801/HDF5_LSASAF_MSG_006-BRF_Disk_201608010545.h5',
 '/cnrm/vegeo/pinaultf/experiments/exp2/enable.aerosol.in.al1.smac.x.0.0/data/out-al1//20160801/HDF5_LSASAF_MSG_008-BRF_Disk_201608010545.h5',
 '/cnrm/vegeo/pinaultf/experiments/exp2/enable.aerosol.in.al1.smac.x.0.0/data/out-al1//20160801/HDF5_LSASAF_MSG_016-BRF_Disk_201608010545.h5',
 '/cnrm/vegeo/pinaultf/data/msg/angles/solar/2016/08/01//HDF5_LSASAF_MSG_SAA_MSG-Disk_201608010545',
 '/cnrm/vegeo/pinaultf/data/msg/angles/solar/2016/08/01//HDF5_LSASAF_MSG_SZA_MSG-Disk_201608010545',
 '/cnrm/vegeo/pinaultf/data/from-ipma/cache/input-al1-2016/MSG//2016/08/01/HDF5_LSASAF_MSG_VAA_MSG-Disk_201608010545',
 '/cnrm/vegeo/pinaultf/data/from-ipma/cache/input-al1-2016/MSG//2016/08/01/HDF5_LSASAF_MSG_VZA_MSG-Disk_201608010545',
 '/cnrm/vegeo/pinaultf/experiments/exp2/enable.aerosol.in.al1.smac.x.0.0/data/out-al1//20160801/HDF5_LSASAF_MSG_006-BRF_Disk_201608010600.h5',
 '/cnrm/vegeo/pinaultf/experiments/exp2/enable.aerosol.in.al1.smac.x.0.0/data/out-al1//20160801/HDF5_LSASAF_MSG_008-BRF_Disk_201608010600.h5',
 '/cnrm/vegeo/pinaultf/experiments/exp2/enable.aerosol.in.al1.smac.x.0.0/data/out-al1//20160801/HDF5_LSASAF_MSG_016-BRF_Disk_201608010600.h5',
 '/cnrm/vegeo/pinaultf/data/msg/angles/solar/2016/08/01//HDF5_LSASAF_MSG_SAA_MSG-Disk_201608010600',
 '/cnrm/vegeo/pinaultf/data/msg/angles/solar/2016/08/01//HDF5_LSASAF_MSG_SZA_MSG-Disk_201608010600',
 '/cnrm/vegeo/pinaultf/data/from-ipma/cache/input-al1-2016/MSG//2016/08/01/HDF5_LSASAF_MSG_VAA_MSG-Disk_201608010600',
 '/cnrm/vegeo/pinaultf/data/from-ipma/cache/input-al1-2016/MSG//2016/08/01/HDF5_LSASAF_MSG_VZA_MSG-Disk_201608010600',
 '/cnrm/vegeo/pinaultf/experiments/exp2/enable.aerosol.in.al1.smac.x.0.0/data/out-al1//20160801/HDF5_LSASAF_MSG_006-BRF_Disk_201608010615.h5',
 '/cnrm/vegeo/pinaultf/experiments/exp2/enable.aerosol.in.al1.smac.x.0.0/data/out-al1//20160801/HDF5_LSASAF_MSG_008-BRF_Disk_201608010615.h5',
 '/cnrm/vegeo/pinaultf/experiments/exp2/enable.aerosol.in.al1.smac.x.0.0/data/out-al1//20160801/HDF5_LSASAF_MSG_016-BRF_Disk_201608010615.h5',
 '/cnrm/vegeo/pinaultf/data/msg/angles/solar/2016/08/01//HDF5_LSASAF_MSG_SAA_MSG-Disk_201608010615',
 '/cnrm/vegeo/pinaultf/data/msg/angles/solar/2016/08/01//HDF5_LSASAF_MSG_SZA_MSG-Disk_201608010615',
 '/cnrm/vegeo/pinaultf/data/from-ipma/cache/input-al1-2016/MSG//2016/08/01/HDF5_LSASAF_MSG_VAA_MSG-Disk_201608010615',
 '/cnrm/vegeo/pinaultf/data/from-ipma/cache/input-al1-2016/MSG//2016/08/01/HDF5_LSASAF_MSG_VZA_MSG-Disk_201608010615',
 '/cnrm/vegeo/pinaultf/experiments/exp2/enable.aerosol.in.al1.smac.x.0.0/data/out-al1//20160801/HDF5_LSASAF_MSG_006-BRF_Disk_201608010630.h5',
 '/cnrm/vegeo/pinaultf/experiments/exp2/enable.aerosol.in.al1.smac.x.0.0/data/out-al1//20160801/HDF5_LSASAF_MSG_008-BRF_Disk_201608010630.h5',
 '/cnrm/vegeo/pinaultf/experiments/exp2/enable.aerosol.in.al1.smac.x.0.0/data/out-al1//20160801/HDF5_LSASAF_MSG_016-BRF_Disk_201608010630.h5',
 '/cnrm/vegeo/pinaultf/data/msg/angles/solar/2016/08/01//HDF5_LSASAF_MSG_SAA_MSG-Disk_201608010630',
 '/cnrm/vegeo/pinaultf/data/msg/angles/solar/2016/08/01//HDF5_LSASAF_MSG_SZA_MSG-Disk_201608010630',
 '/cnrm/vegeo/pinaultf/data/from-ipma/cache/input-al1-2016/MSG//2016/08/01/HDF5_LSASAF_MSG_VAA_MSG-Disk_201608010630',
 '/cnrm/vegeo/pinaultf/data/from-ipma/cache/input-al1-2016/MSG//2016/08/01/HDF5_LSASAF_MSG_VZA_MSG-Disk_201608010630',
 '/cnrm/vegeo/pinaultf/experiments/exp2/enable.aerosol.in.al1.smac.x.0.0/data/out-al1//20160801/HDF5_LSASAF_MSG_006-BRF_Disk_201608010645.h5',
 '/cnrm/vegeo/pinaultf/experiments/exp2/enable.aerosol.in.al1.smac.x.0.0/data/out-al1//20160801/HDF5_LSASAF_MSG_008-BRF_Disk_201608010645.h5',
 '/cnrm/vegeo/pinaultf/experiments/exp2/enable.aerosol.in.al1.smac.x.0.0/data/out-al1//20160801/HDF5_LSASAF_MSG_016-BRF_Disk_201608010645.h5',
 '/cnrm/vegeo/pinaultf/data/msg/angles/solar/2016/08/01//HDF5_LSASAF_MSG_SAA_MSG-Disk_201608010645',
 '/cnrm/vegeo/pinaultf/data/msg/angles/solar/2016/08/01//HDF5_LSASAF_MSG_SZA_MSG-Disk_201608010645',
 '/cnrm/vegeo/pinaultf/data/from-ipma/cache/input-al1-2016/MSG//2016/08/01/HDF5_LSASAF_MSG_VAA_MSG-Disk_201608010645',
 '/cnrm/vegeo/pinaultf/data/from-ipma/cache/input-al1-2016/MSG//2016/08/01/HDF5_LSASAF_MSG_VZA_MSG-Disk_201608010645',
 '/cnrm/vegeo/pinaultf/experiments/exp2/enable.aerosol.in.al1.smac.x.0.0/data/out-al1//20160801/HDF5_LSASAF_MSG_006-BRF_Disk_201608010700.h5',
 '/cnrm/vegeo/pinaultf/experiments/exp2/enable.aerosol.in.al1.smac.x.0.0/data/out-al1//20160801/HDF5_LSASAF_MSG_008-BRF_Disk_201608010700.h5',
 '/cnrm/vegeo/pinaultf/experiments/exp2/enable.aerosol.in.al1.smac.x.0.0/data/out-al1//20160801/HDF5_LSASAF_MSG_016-BRF_Disk_201608010700.h5',
 '/cnrm/vegeo/pinaultf/data/msg/angles/solar/2016/08/01//HDF5_LSASAF_MSG_SAA_MSG-Disk_201608010700',
 '/cnrm/vegeo/pinaultf/data/msg/angles/solar/2016/08/01//HDF5_LSASAF_MSG_SZA_MSG-Disk_201608010700',
 '/cnrm/vegeo/pinaultf/data/from-ipma/cache/input-al1-2016/MSG//2016/08/01/HDF5_LSASAF_MSG_VAA_MSG-Disk_201608010700',
 '/cnrm/vegeo/pinaultf/data/from-ipma/cache/input-al1-2016/MSG//2016/08/01/HDF5_LSASAF_MSG_VZA_MSG-Disk_201608010700',
 '/cnrm/vegeo/pinaultf/experiments/exp2/enable.aerosol.in.al1.smac.x.0.0/data/out-al1//20160801/HDF5_LSASAF_MSG_006-BRF_Disk_201608010715.h5',
 '/cnrm/vegeo/pinaultf/experiments/exp2/enable.aerosol.in.al1.smac.x.0.0/data/out-al1//20160801/HDF5_LSASAF_MSG_008-BRF_Disk_201608010715.h5',
 '/cnrm/vegeo/pinaultf/experiments/exp2/enable.aerosol.in.al1.smac.x.0.0/data/out-al1//20160801/HDF5_LSASAF_MSG_016-BRF_Disk_201608010715.h5',
 '/cnrm/vegeo/pinaultf/data/msg/angles/solar/2016/08/01//HDF5_LSASAF_MSG_SAA_MSG-Disk_201608010715',
 '/cnrm/vegeo/pinaultf/data/msg/angles/solar/2016/08/01//HDF5_LSASAF_MSG_SZA_MSG-Disk_201608010715',
 '/cnrm/vegeo/pinaultf/data/from-ipma/cache/input-al1-2016/MSG//2016/08/01/HDF5_LSASAF_MSG_VAA_MSG-Disk_201608010715',
 '/cnrm/vegeo/pinaultf/data/from-ipma/cache/input-al1-2016/MSG//2016/08/01/HDF5_LSASAF_MSG_VZA_MSG-Disk_201608010715',
 '/cnrm/vegeo/pinaultf/experiments/exp2/enable.aerosol.in.al1.smac.x.0.0/data/out-al1//20160801/HDF5_LSASAF_MSG_006-BRF_Disk_201608010730.h5',
 '/cnrm/vegeo/pinaultf/experiments/exp2/enable.aerosol.in.al1.smac.x.0.0/data/out-al1//20160801/HDF5_LSASAF_MSG_008-BRF_Disk_201608010730.h5',
 '/cnrm/vegeo/pinaultf/experiments/exp2/enable.aerosol.in.al1.smac.x.0.0/data/out-al1//20160801/HDF5_LSASAF_MSG_016-BRF_Disk_201608010730.h5',
 '/cnrm/vegeo/pinaultf/data/msg/angles/solar/2016/08/01//HDF5_LSASAF_MSG_SAA_MSG-Disk_201608010730',
 '/cnrm/vegeo/pinaultf/data/msg/angles/solar/2016/08/01//HDF5_LSASAF_MSG_SZA_MSG-Disk_201608010730',
 '/cnrm/vegeo/pinaultf/data/from-ipma/cache/input-al1-2016/MSG//2016/08/01/HDF5_LSASAF_MSG_VAA_MSG-Disk_201608010730',
 '/cnrm/vegeo/pinaultf/data/from-ipma/cache/input-al1-2016/MSG//2016/08/01/HDF5_LSASAF_MSG_VZA_MSG-Disk_201608010730',
 '/cnrm/vegeo/pinaultf/experiments/exp2/enable.aerosol.in.al1.smac.x.0.0/data/out-al1//20160801/HDF5_LSASAF_MSG_006-BRF_Disk_201608010745.h5',
 '/cnrm/vegeo/pinaultf/experiments/exp2/enable.aerosol.in.al1.smac.x.0.0/data/out-al1//20160801/HDF5_LSASAF_MSG_008-BRF_Disk_201608010745.h5',
 '/cnrm/vegeo/pinaultf/experiments/exp2/enable.aerosol.in.al1.smac.x.0.0/data/out-al1//20160801/HDF5_LSASAF_MSG_016-BRF_Disk_201608010745.h5',
 '/cnrm/vegeo/pinaultf/data/msg/angles/solar/2016/08/01//HDF5_LSASAF_MSG_SAA_MSG-Disk_201608010745',
 '/cnrm/vegeo/pinaultf/data/msg/angles/solar/2016/08/01//HDF5_LSASAF_MSG_SZA_MSG-Disk_201608010745',
 '/cnrm/vegeo/pinaultf/data/from-ipma/cache/input-al1-2016/MSG//2016/08/01/HDF5_LSASAF_MSG_VAA_MSG-Disk_201608010745',
 '/cnrm/vegeo/pinaultf/data/from-ipma/cache/input-al1-2016/MSG//2016/08/01/HDF5_LSASAF_MSG_VZA_MSG-Disk_201608010745',
 '/cnrm/vegeo/pinaultf/experiments/exp2/enable.aerosol.in.al1.smac.x.0.0/data/out-al1//20160801/HDF5_LSASAF_MSG_006-BRF_Disk_201608010800.h5',
 '/cnrm/vegeo/pinaultf/experiments/exp2/enable.aerosol.in.al1.smac.x.0.0/data/out-al1//20160801/HDF5_LSASAF_MSG_008-BRF_Disk_201608010800.h5',
 '/cnrm/vegeo/pinaultf/experiments/exp2/enable.aerosol.in.al1.smac.x.0.0/data/out-al1//20160801/HDF5_LSASAF_MSG_016-BRF_Disk_201608010800.h5',
 '/cnrm/vegeo/pinaultf/data/msg/angles/solar/2016/08/01//HDF5_LSASAF_MSG_SAA_MSG-Disk_201608010800',
 '/cnrm/vegeo/pinaultf/data/msg/angles/solar/2016/08/01//HDF5_LSASAF_MSG_SZA_MSG-Disk_201608010800',
 '/cnrm/vegeo/pinaultf/data/from-ipma/cache/input-al1-2016/MSG//2016/08/01/HDF5_LSASAF_MSG_VAA_MSG-Disk_201608010800',
 '/cnrm/vegeo/pinaultf/data/from-ipma/cache/input-al1-2016/MSG//2016/08/01/HDF5_LSASAF_MSG_VZA_MSG-Disk_201608010800',
 '/cnrm/vegeo/pinaultf/experiments/exp2/enable.aerosol.in.al1.smac.x.0.0/data/out-al1//20160801/HDF5_LSASAF_MSG_006-BRF_Disk_201608010815.h5',
 '/cnrm/vegeo/pinaultf/experiments/exp2/enable.aerosol.in.al1.smac.x.0.0/data/out-al1//20160801/HDF5_LSASAF_MSG_008-BRF_Disk_201608010815.h5',
 '/cnrm/vegeo/pinaultf/experiments/exp2/enable.aerosol.in.al1.smac.x.0.0/data/out-al1//20160801/HDF5_LSASAF_MSG_016-BRF_Disk_201608010815.h5',
 '/cnrm/vegeo/pinaultf/data/msg/angles/solar/2016/08/01//HDF5_LSASAF_MSG_SAA_MSG-Disk_201608010815',
 '/cnrm/vegeo/pinaultf/data/msg/angles/solar/2016/08/01//HDF5_LSASAF_MSG_SZA_MSG-Disk_201608010815',
 '/cnrm/vegeo/pinaultf/data/from-ipma/cache/input-al1-2016/MSG//2016/08/01/HDF5_LSASAF_MSG_VAA_MSG-Disk_201608010815',
 '/cnrm/vegeo/pinaultf/data/from-ipma/cache/input-al1-2016/MSG//2016/08/01/HDF5_LSASAF_MSG_VZA_MSG-Disk_201608010815',