 &NAM_ALG_MODES
 MODE      = 1
 /
 &NAM_ALG_INPUT_FILES_PATH
 YFILEINP    = 'input/HDF5_LSASAF_MSG_LAT_Disk_201412091000',
 'output/HDF5_LSASAF_MSG_AL-C1-K012_Disk_20160801',
 'output/HDF5_LSASAF_MSG_AL-C1-CK_Disk_20160801',
 'output/HDF5_LSASAF_MSG_AL-C2-K012_Disk_20160801',
 'output/HDF5_LSASAF_MSG_AL-C2-CK_Disk_20160801',
 'output/HDF5_LSASAF_MSG_AL-C3-K012_Disk_20160801',
 'output/HDF5_LSASAF_MSG_AL-C3-CK_Disk_20160801'
 '/cnrm/vegeo/pinaultf/experiments/exp2/enable.aerosol.in.al1.smac.x.0.0/data/out-al1//20160802/HDF5_LSASAF_MSG_006-BRF_Disk_201608020000',
 '/cnrm/vegeo/pinaultf/experiments/exp2/enable.aerosol.in.al1.smac.x.0.0/data/out-al1//20160802/HDF5_LSASAF_MSG_008-BRF_Disk_201608020000',
 '/cnrm/vegeo/pinaultf/experiments/exp2/enable.aerosol.in.al1.smac.x.0.0/data/out-al1//20160802/HDF5_LSASAF_MSG_016-BRF_Disk_201608020000',
 '/cnrm/vegeo/pinaultf/data/msg/angles/solar/2016/08/02//HDF5_LSASAF_MSG_SAA_MSG-Disk_201608020000',
 '/cnrm/vegeo/pinaultf/data/msg/angles/solar/2016/08/02//HDF5_LSASAF_MSG_SZA_MSG-Disk_201608020000',
 '/cnrm/vegeo/pinaultf/data/from-ipma/cache/input-al1-2016/MSG//2016/08/02/HDF5_LSASAF_MSG_VAA_MSG-Disk_201608020000',
 '/cnrm/vegeo/pinaultf/data/from-ipma/cache/input-al1-2016/MSG//2016/08/02/HDF5_LSASAF_MSG_VZA_MSG-Disk_201608020000',
 '/cnrm/vegeo/pinaultf/experiments/exp2/enable.aerosol.in.al1.smac.x.0.0/data/out-al1//20160802/HDF5_LSASAF_MSG_006-BRF_Disk_201608020015',
 '/cnrm/vegeo/pinaultf/experiments/exp2/enable.aerosol.in.al1.smac.x.0.0/data/out-al1//20160802/HDF5_LSASAF_MSG_008-BRF_Disk_201608020015',
 '/cnrm/vegeo/pinaultf/experiments/exp2/enable.aerosol.in.al1.smac.x.0.0/data/out-al1//20160802/HDF5_LSASAF_MSG_016-BRF_Disk_201608020015',
 '/cnrm/vegeo/pinaultf/data/msg/angles/solar/2016/08/02//HDF5_LSASAF_MSG_SAA_MSG-Disk_201608020015',
 '/cnrm/vegeo/pinaultf/data/msg/angles/solar/2016/08/02//HDF5_LSASAF_MSG_SZA_MSG-Disk_201608020015',
 '/cnrm/vegeo/pinaultf/data/from-ipma/cache/input-al1-2016/MSG//2016/08/02/HDF5_LSASAF_MSG_VAA_MSG-Disk_201608020015',
 '/cnrm/vegeo/pinaultf/data/from-ipma/cache/input-al1-2016/MSG//2016/08/02/HDF5_LSASAF_MSG_VZA_MSG-Disk_201608020015',
 '/cnrm/vegeo/pinaultf/experiments/exp2/enable.aerosol.in.al1.smac.x.0.0/data/out-al1//20160802/HDF5_LSASAF_MSG_006-BRF_Disk_201608020030',
 '/cnrm/vegeo/pinaultf/experiments/exp2/enable.aerosol.in.al1.smac.x.0.0/data/out-al1//20160802/HDF5_LSASAF_MSG_008-BRF_Disk_201608020030',
 '/cnrm/vegeo/pinaultf/experiments/exp2/enable.aerosol.in.al1.smac.x.0.0/data/out-al1//20160802/HDF5_LSASAF_MSG_016-BRF_Disk_201608020030',
 '/cnrm/vegeo/pinaultf/data/msg/angles/solar/2016/08/02//HDF5_LSASAF_MSG_SAA_MSG-Disk_201608020030',
 '/cnrm/vegeo/pinaultf/data/msg/angles/solar/2016/08/02//HDF5_LSASAF_MSG_SZA_MSG-Disk_201608020030',
 '/cnrm/vegeo/pinaultf/data/from-ipma/cache/input-al1-2016/MSG//2016/08/02/HDF5_LSASAF_MSG_VAA_MSG-Disk_201608020030',
 '/cnrm/vegeo/pinaultf/data/from-ipma/cache/input-al1-2016/MSG//2016/08/02/HDF5_LSASAF_MSG_VZA_MSG-Disk_201608020030',
 '/cnrm/vegeo/pinaultf/experiments/exp2/enable.aerosol.in.al1.smac.x.0.0/data/out-al1//20160802/HDF5_LSASAF_MSG_006-BRF_Disk_201608020045',
 '/cnrm/vegeo/pinaultf/experiments/exp2/enable.aerosol.in.al1.smac.x.0.0/data/out-al1//20160802/HDF5_LSASAF_MSG_008-BRF_Disk_201608020045',
 '/cnrm/vegeo/pinaultf/experiments/exp2/enable.aerosol.in.al1.smac.x.0.0/data/out-al1//20160802/HDF5_LSASAF_MSG_016-BRF_Disk_201608020045',
 '/cnrm/vegeo/pinaultf/data/msg/angles/solar/2016/08/02//HDF5_LSASAF_MSG_SAA_MSG-Disk_201608020045',
 '/cnrm/vegeo/pinaultf/data/msg/angles/solar/2016/08/02//HDF5_LSASAF_MSG_SZA_MSG-Disk_201608020045',
 '/cnrm/vegeo/pinaultf/data/from-ipma/cache/input-al1-2016/MSG//2016/08/02/HDF5_LSASAF_MSG_VAA_MSG-Disk_201608020045',
 '/cnrm/vegeo/pinaultf/data/from-ipma/cache/input-al1-2016/MSG//2016/08/02/HDF5_LSASAF_MSG_VZA_MSG-Disk_201608020045',
 '/cnrm/vegeo/pinaultf/experiments/exp2/enable.aerosol.in.al1.smac.x.0.0/data/out-al1//20160802/HDF5_LSASAF_MSG_006-BRF_Disk_201608020100',
 '/cnrm/vegeo/pinaultf/experiments/exp2/enable.aerosol.in.al1.smac.x.0.0/data/out-al1//20160802/HDF5_LSASAF_MSG_008-BRF_Disk_201608020100',
 '/cnrm/vegeo/pinaultf/experiments/exp2/enable.aerosol.in.al1.smac.x.0.0/data/out-al1//20160802/HDF5_LSASAF_MSG_016-BRF_Disk_201608020100',
 '/cnrm/vegeo/pinaultf/data/msg/angles/solar/2016/08/02//HDF5_LSASAF_MSG_SAA_MSG-Disk_201608020100',
 '/cnrm/vegeo/pinaultf/data/msg/angles/solar/2016/08/02//HDF5_LSASAF_MSG_SZA_MSG-Disk_201608020100',
 '/cnrm/vegeo/pinaultf/data/from-ipma/cache/input-al1-2016/MSG//2016/08/02/HDF5_LSASAF_MSG_VAA_MSG-Disk_201608020100',
 '/cnrm/vegeo/pinaultf/data/from-ipma/cache/input-al1-2016/MSG//2016/08/02/HDF5_LSASAF_MSG_VZA_MSG-Disk_201608020100',
 '/cnrm/vegeo/pinaultf/experiments/exp2/enable.aerosol.in.al1.smac.x.0.0/data/out-al1//20160802/HDF5_LSASAF_MSG_006-BRF_Disk_201608020115',
 '/cnrm/vegeo/pinaultf/experiments/exp2/enable.aerosol.in.al1.smac.x.0.0/data/out-al1//20160802/HDF5_LSASAF_MSG_008-BRF_Disk_201608020115',
 '/cnrm/vegeo/pinaultf/experiments/exp2/enable.aerosol.in.al1.smac.x.0.0/data/out-al1//20160802/HDF5_LSASAF_MSG_016-BRF_Disk_201608020115',
 '/cnrm/vegeo/pinaultf/data/msg/angles/solar/2016/08/02//HDF5_LSASAF_MSG_SAA_MSG-Disk_201608020115',
 '/cnrm/vegeo/pinaultf/data/msg/angles/solar/2016/08/02//HDF5_LSASAF_MSG_SZA_MSG-Disk_201608020115',
 '/cnrm/vegeo/pinaultf/data/from-ipma/cache/input-al1-2016/MSG//2016/08/02/HDF5_LSASAF_MSG_VAA_MSG-Disk_201608020115',
 '/cnrm/vegeo/pinaultf/data/from-ipma/cache/input-al1-2016/MSG//2016/08/02/HDF5_LSASAF_MSG_VZA_MSG-Disk_201608020115',
 '/cnrm/vegeo/pinaultf/experiments/exp2/enable.aerosol.in.al1.smac.x.0.0/data/out-al1//20160802/HDF5_LSASAF_MSG_006-BRF_Disk_201608020130',
 '/cnrm/vegeo/pinaultf/experiments/exp2/enable.aerosol.in.al1.smac.x.0.0/data/out-al1//20160802/HDF5_LSASAF_MSG_008-BRF_Disk_201608020130',
 '/cnrm/vegeo/pinaultf/experiments/exp2/enable.aerosol.in.al1.smac.x.0.0/data/out-al1//20160802/HDF5_LSASAF_MSG_016-BRF_Disk_201608020130',
 '/cnrm/vegeo/pinaultf/data/msg/angles/solar/2016/08/02//HDF5_LSASAF_MSG_SAA_MSG-Disk_201608020130',
 '/cnrm/vegeo/pinaultf/data/msg/angles/solar/2016/08/02//HDF5_LSASAF_MSG_SZA_MSG-Disk_201608020130',
 '/cnrm/vegeo/pinaultf/data/from-ipma/cache/input-al1-2016/MSG//2016/08/02/HDF5_LSASAF_MSG_VAA_MSG-Disk_201608020130',
 '/cnrm/vegeo/pinaultf/data/from-ipma/cache/input-al1-2016/MSG//2016/08/02/HDF5_LSASAF_MSG_VZA_MSG-Disk_201608020130',
 '/cnrm/vegeo/pinaultf/experiments/exp2/enable.aerosol.in.al1.smac.x.0.0/data/out-al1//20160802/HDF5_LSASAF_MSG_006-BRF_Disk_201608020145',
 '/cnrm/vegeo/pinaultf/experiments/exp2/enable.aerosol.in.al1.smac.x.0.0/data/out-al1//20160802/HDF5_LSASAF_MSG_008-BRF_Disk_201608020145',
 '/cnrm/vegeo/pinaultf/experiments/exp2/enable.aerosol.in.al1.smac.x.0.0/data/out-al1//20160802/HDF5_LSASAF_MSG_016-BRF_Disk_201608020145',
 '/cnrm/vegeo/pinaultf/data/msg/angles/solar/2016/08/02//HDF5_LSASAF_MSG_SAA_MSG-Disk_201608020145',
 '/cnrm/vegeo/pinaultf/data/msg/angles/solar/2016/08/02//HDF5_LSASAF_MSG_SZA_MSG-Disk_201608020145',
 '/cnrm/vegeo/pinaultf/data/from-ipma/cache/input-al1-2016/MSG//2016/08/02/HDF5_LSASAF_MSG_VAA_MSG-Disk_201608020145',
 '/cnrm/vegeo/pinaultf/data/from-ipma/cache/input-al1-2016/MSG//2016/08/02/HDF5_LSASAF_MSG_VZA_MSG-Disk_201608020145',
 '/cnrm/vegeo/pinaultf/experiments/exp2/enable.aerosol.in.al1.smac.x.0.0/data/out-al1//20160802/HDF5_LSASAF_MSG_006-BRF_Disk_201608020200',
 '/cnrm/vegeo/pinaultf/experiments/exp2/enable.aerosol.in.al1.smac.x.0.0/data/out-al1//20160802/HDF5_LSASAF_MSG_008-BRF_Disk_201608020200',
 '/cnrm/vegeo/pinaultf/experiments/exp2/enable.aerosol.in.al1.smac.x.0.0/data/out-al1//20160802/HDF5_LSASAF_MSG_016-BRF_Disk_201608020200',
 '/cnrm/vegeo/pinaultf/data/msg/angles/solar/2016/08/02//HDF5_LSASAF_MSG_SAA_MSG-Disk_201608020200',
 '/cnrm/vegeo/pinaultf/data/msg/angles/solar/2016/08/02//HDF5_LSASAF_MSG_SZA_MSG-Disk_201608020200',
 '/cnrm/vegeo/pinaultf/data/from-ipma/cache/input-al1-2016/MSG//2016/08/02/HDF5_LSASAF_MSG_VAA_MSG-Disk_201608020200',
 '/cnrm/vegeo/pinaultf/data/from-ipma/cache/input-al1-2016/MSG//2016/08/02/HDF5_LSASAF_MSG_VZA_MSG-Disk_201608020200',
 '/cnrm/vegeo/pinaultf/experiments/exp2/enable.aerosol.in.al1.smac.x.0.0/data/out-al1//20160802/HDF5_LSASAF_MSG_006-BRF_Disk_201608020215',
 '/cnrm/vegeo/pinaultf/experiments/exp2/enable.aerosol.in.al1.smac.x.0.0/data/out-al1//20160802/HDF5_LSASAF_MSG_008-BRF_Disk_201608020215',
 '/cnrm/vegeo/pinaultf/experiments/exp2/enable.aerosol.in.al1.smac.x.0.0/data/out-al1//20160802/HDF5_LSASAF_MSG_016-BRF_Disk_201608020215',
 '/cnrm/vegeo/pinaultf/data/msg/angles/solar/2016/08/02//HDF5_LSASAF_MSG_SAA_MSG-Disk_201608020215',
 '/cnrm/vegeo/pinaultf/data/msg/angles/solar/2016/08/02//HDF5_LSASAF_MSG_SZA_MSG-Disk_201608020215',
 '/cnrm/vegeo/pinaultf/data/from-ipma/cache/input-al1-2016/MSG//2016/08/02/HDF5_LSASAF_MSG_VAA_MSG-Disk_201608020215',
 '/cnrm/vegeo/pinaultf/data/from-ipma/cache/input-al1-2016/MSG//2016/08/02/HDF5_LSASAF_MSG_VZA_MSG-Disk_201608020215',
 '/cnrm/vegeo/pinaultf/experiments/exp2/enable.aerosol.in.al1.smac.x.0.0/data/out-al1//20160802/HDF5_LSASAF_MSG_006-BRF_Disk_201608020230',
 '/cnrm/vegeo/pinaultf/experiments/exp2/enable.aerosol.in.al1.smac.x.0.0/data/out-al1//20160802/HDF5_LSASAF_MSG_008-BRF_Disk_201608020230',
 '/cnrm/vegeo/pinaultf/experiments/exp2/enable.aerosol.in.al1.smac.x.0.0/data/out-al1//20160802/HDF5_LSASAF_MSG_016-BRF_Disk_201608020230',
 '/cnrm/vegeo/pinaultf/data/msg/angles/solar/2016/08/02//HDF5_LSASAF_MSG_SAA_MSG-Disk_201608020230',
 '/cnrm/vegeo/pinaultf/data/msg/angles/solar/2016/08/02//HDF5_LSASAF_MSG_SZA_MSG-Disk_201608020230',
 '/cnrm/vegeo/pinaultf/data/from-ipma/cache/input-al1-2016/MSG//2016/08/02/HDF5_LSASAF_MSG_VAA_MSG-Disk_201608020230',
 '/cnrm/vegeo/pinaultf/data/from-ipma/cache/input-al1-2016/MSG//2016/08/02/HDF5_LSASAF_MSG_VZA_MSG-Disk_201608020230',
 '/cnrm/vegeo/pinaultf/experiments/exp2/enable.aerosol.in.al1.smac.x.0.0/data/out-al1//20160802/HDF5_LSASAF_MSG_006-BRF_Disk_201608020245',
 '/cnrm/vegeo/pinaultf/experiments/exp2/enable.aerosol.in.al1.smac.x.0.0/data/out-al1//20160802/HDF5_LSASAF_MSG_008-BRF_Disk_201608020245',
 '/cnrm/vegeo/pinaultf/experiments/exp2/enable.aerosol.in.al1.smac.x.0.0/data/out-al1//20160802/HDF5_LSASAF_MSG_016-BRF_Disk_201608020245',
 '/cnrm/vegeo/pinaultf/data/msg/angles/solar/2016/08/02//HDF5_LSASAF_MSG_SAA_MSG-Disk_201608020245',
 '/cnrm/vegeo/pinaultf/data/msg/angles/solar/2016/08/02//HDF5_LSASAF_MSG_SZA_MSG-Disk_201608020245',
 '/cnrm/vegeo/pinaultf/data/from-ipma/cache/input-al1-2016/MSG//2016/08/02/HDF5_LSASAF_MSG_VAA_MSG-Disk_201608020245',
 '/cnrm/vegeo/pinaultf/data/from-ipma/cache/input-al1-2016/MSG//2016/08/02/HDF5_LSASAF_MSG_VZA_MSG-Disk_201608020245',
 '/cnrm/vegeo/pinaultf/experiments/exp2/enable.aerosol.in.al1.smac.x.0.0/data/out-al1//20160802/HDF5_LSASAF_MSG_006-BRF_Disk_201608020300',
 '/cnrm/vegeo/pinaultf/experiments/exp2/enable.aerosol.in.al1.smac.x.0.0/data/out-al1//20160802/HDF5_LSASAF_MSG_008-BRF_Disk_201608020300',
 '/cnrm/vegeo/pinaultf/experiments/exp2/enable.aerosol.in.al1.smac.x.0.0/data/out-al1//20160802/HDF5_LSASAF_MSG_016-BRF_Disk_201608020300',
 '/cnrm/vegeo/pinaultf/data/msg/angles/solar/2016/08/02//HDF5_LSASAF_MSG_SAA_MSG-Disk_201608020300',
 '/cnrm/vegeo/pinaultf/data/msg/angles/solar/2016/08/02//HDF5_LSASAF_MSG_SZA_MSG-Disk_201608020300',
 '/cnrm/vegeo/pinaultf/data/from-ipma/cache/input-al1-2016/MSG//2016/08/02/HDF5_LSASAF_MSG_VAA_MSG-Disk_201608020300',
 '/cnrm/vegeo/pinaultf/data/from-ipma/cache/input-al1-2016/MSG//2016/08/02/HDF5_LSASAF_MSG_VZA_MSG-Disk_201608020300',
 '/cnrm/vegeo/pinaultf/experiments/exp2/enable.aerosol.in.al1.smac.x.0.0/data/out-al1//20160802/HDF5_LSASAF_MSG_006-BRF_Disk_201608020315',
 '/cnrm/vegeo/pinaultf/experiments/exp2/enable.aerosol.in.al1.smac.x.0.0/data/out-al1//20160802/HDF5_LSASAF_MSG_008-BRF_Disk_201608020315',
 '/cnrm/vegeo/pinaultf/experiments/exp2/enable.aerosol.in.al1.smac.x.0.0/data/out-al1//20160802/HDF5_LSASAF_MSG_016-BRF_Disk_201608020315',
 '/cnrm/vegeo/pinaultf/data/msg/angles/solar/2016/08/02//HDF5_LSASAF_MSG_SAA_MSG-Disk_201608020315',
 '/cnrm/vegeo/pinaultf/data/msg/angles/solar/2016/08/02//HDF5_LSASAF_MSG_SZA_MSG-Disk_201608020315',
 '/cnrm/vegeo/pinaultf/data/from-ipma/cache/input-al1-2016/MSG//2016/08/02/HDF5_LSASAF_MSG_VAA_MSG-Disk_201608020315',
 '/cnrm/vegeo/pinaultf/data/from-ipma/cache/input-al1-2016/MSG//2016/08/02/HDF5_LSASAF_MSG_VZA_MSG-Disk_201608020315',
 '/cnrm/vegeo/pinaultf/experiments/exp2/enable.aerosol.in.al1.smac.x.0.0/data/out-al1//20160802/HDF5_LSASAF_MSG_006-BRF_Disk_201608020330',
 '/cnrm/vegeo/pinaultf/experiments/exp2/enable.aerosol.in.al1.smac.x.0.0/data/out-al1//20160802/HDF5_LSASAF_MSG_008-BRF_Disk_201608020330',
 '/cnrm/vegeo/pinaultf/experiments/exp2/enable.aerosol.in.al1.smac.x.0.0/data/out-al1//20160802/HDF5_LSASAF_MSG_016-BRF_Disk_201608020330',
 '/cnrm/vegeo/pinaultf/data/msg/angles/solar/2016/08/02//HDF5_LSASAF_MSG_SAA_MSG-Disk_201608020330',
 '/cnrm/vegeo/pinaultf/data/msg/angles/solar/2016/08/02//HDF5_LSASAF_MSG_SZA_MSG-Disk_201608020330',
 '/cnrm/vegeo/pinaultf/data/from-ipma/cache/input-al1-2016/MSG//2016/08/02/HDF5_LSASAF_MSG_VAA_MSG-Disk_201608020330',
 '/cnrm/vegeo/pinaultf/data/from-ipma/cache/input-al1-2016/MSG//2016/08/02/HDF5_LSASAF_MSG_VZA_MSG-Disk_201608020330',
 '/cnrm/vegeo/pinaultf/experiments/exp2/enable.aerosol.in.al1.smac.x.0.0/data/out-al1//20160802/HDF5_LSASAF_MSG_006-BRF_Disk_201608020345',
 '/cnrm/vegeo/pinaultf/experiments/exp2/enable.aerosol.in.al1.smac.x.0.0/data/out-al1//20160802/HDF5_LSASAF_MSG_008-BRF_Disk_201608020345',
 '/cnrm/vegeo/pinaultf/experiments/exp2/enable.aerosol.in.al1.smac.x.0.0/data/out-al1//20160802/HDF5_LSASAF_MSG_016-BRF_Disk_201608020345',
 '/cnrm/vegeo/pinaultf/data/msg/angles/solar/2016/08/02//HDF5_LSASAF_MSG_SAA_MSG-Disk_201608020345',
 '/cnrm/vegeo/pinaultf/data/msg/angles/solar/2016/08/02//HDF5_LSASAF_MSG_SZA_MSG-Disk_201608020345',
 '/cnrm/vegeo/pinaultf/data/from-ipma/cache/input-al1-2016/MSG//2016/08/02/HDF5_LSASAF_MSG_VAA_MSG-Disk_201608020345',
 '/cnrm/vegeo/pinaultf/data/from-ipma/cache/input-al1-2016/MSG//2016/08/02/HDF5_LSASAF_MSG_VZA_MSG-Disk_201608020345',
 '/cnrm/vegeo/pinaultf/experiments/exp2/enable.aerosol.in.al1.smac.x.0.0/data/out-al1//20160802/HDF5_LSASAF_MSG_006-BRF_Disk_201608020400',
 '/cnrm/vegeo/pinaultf/experiments/exp2/enable.aerosol.in.al1.smac.x.0.0/data/out-al1//20160802/HDF5_LSASAF_MSG_008-BRF_Disk_201608020400',
 '/cnrm/vegeo/pinaultf/experiments/exp2/enable.aerosol.in.al1.smac.x.0.0/data/out-al1//20160802/HDF5_LSASAF_MSG_016-BRF_Disk_201608020400',
 '/cnrm/vegeo/pinaultf/data/msg/angles/solar/2016/08/02//HDF5_LSASAF_MSG_SAA_MSG-Disk_201608020400',
 '/cnrm/vegeo/pinaultf/data/msg/angles/solar/2016/08/02//HDF5_LSASAF_MSG_SZA_MSG-Disk_201608020400',
 '/cnrm/vegeo/pinaultf/data/from-ipma/cache/input-al1-2016/MSG//2016/08/02/HDF5_LSASAF_MSG_VAA_MSG-Disk_201608020400',
 '/cnrm/vegeo/pinaultf/data/from-ipma/cache/input-al1-2016/MSG//2016/08/02/HDF5_LSASAF_MSG_VZA_MSG-Disk_201608020400',
 '/cnrm/vegeo/pinaultf/experiments/exp2/enable.aerosol.in.al1.smac.x.0.0/data/out-al1//20160802/HDF5_LSASAF_MSG_006-BRF_Disk_201608020415',
 '/cnrm/vegeo/pinaultf/experiments/exp2/enable.aerosol.in.al1.smac.x.0.0/data/out-al1//20160802/HDF5_LSASAF_MSG_008-BRF_Disk_201608020415',
 '/cnrm/vegeo/pinaultf/experiments/exp2/enable.aerosol.in.al1.smac.x.0.0/data/out-al1//20160802/HDF5_LSASAF_MSG_016-BRF_Disk_201608020415',
 '/cnrm/vegeo/pinaultf/data/msg/angles/solar/2016/08/02//HDF5_LSASAF_MSG_SAA_MSG-Disk_201608020415',
 '/cnrm/vegeo/pinaultf/data/msg/angles/solar/2016/08/02//HDF5_LSASAF_MSG_SZA_MSG-Disk_201608020415',
 '/cnrm/vegeo/pinaultf/data/from-ipma/cache/input-al1-2016/MSG//2016/08/02/HDF5_LSASAF_MSG_VAA_MSG-Disk_201608020415',
 '/cnrm/vegeo/pinaultf/data/from-ipma/cache/input-al1-2016/MSG//2016/08/02/HDF5_LSASAF_MSG_VZA_MSG-Disk_201608020415',
 '/cnrm/vegeo/pinaultf/experiments/exp2/enable.aerosol.in.al1.smac.x.0.0/data/out-al1//20160802/HDF5_LSASAF_MSG_006-BRF_Disk_201608020430',
 '/cnrm/vegeo/pinaultf/experiments/exp2/enable.aerosol.in.al1.smac.x.0.0/data/out-al1//20160802/HDF5_LSASAF_MSG_008-BRF_Disk_201608020430',
 '/cnrm/vegeo/pinaultf/experiments/exp2/enable.aerosol.in.al1.smac.x.0.0/data/out-al1//20160802/HDF5_LSASAF_MSG_016-BRF_Disk_201608020430',
 '/cnrm/vegeo/pinaultf/data/msg/angles/solar/2016/08/02//HDF5_LSASAF_MSG_SAA_MSG-Disk_201608020430',
 '/cnrm/vegeo/pinaultf/data/msg/angles/solar/2016/08/02//HDF5_LSASAF_MSG_SZA_MSG-Disk_201608020430',
 '/cnrm/vegeo/pinaultf/data/from-ipma/cache/input-al1-2016/MSG//2016/08/02/HDF5_LSASAF_MSG_VAA_MSG-Disk_201608020430',
 '/cnrm/vegeo/pinaultf/data/from-ipma/cache/input-al1-2016/MSG//2016/08/02/HDF5_LSASAF_MSG_VZA_MSG-Disk_201608020430',
 '/cnrm/vegeo/pinaultf/experiments/exp2/enable.aerosol.in.al1.smac.x.0.0/data/out-al1//20160802/HDF5_LSASAF_MSG_006-BRF_Disk_201608020445',
 '/cnrm/vegeo/pinaultf/experiments/exp2/enable.aerosol.in.al1.smac.x.0.0/data/out-al1//20160802/HDF5_LSASAF_MSG_008-BRF_Disk_201608020445',
 '/cnrm/vegeo/pinaultf/experiments/exp2/enable.aerosol.in.al1.smac.x.0.0/data/out-al1//20160802/HDF5_LSASAF_MSG_016-BRF_Disk_201608020445',
 '/cnrm/vegeo/pinaultf/data/msg/angles/solar/2016/08/02//HDF5_LSASAF_MSG_SAA_MSG-Disk_201608020445',
 '/cnrm/vegeo/pinaultf/data/msg/angles/solar/2016/08/02//HDF5_LSASAF_MSG_SZA_MSG-Disk_201608020445',
 '/cnrm/vegeo/pinaultf/data/from-ipma/cache/input-al1-2016/MSG//2016/08/02/HDF5_LSASAF_MSG_VAA_MSG-Disk_201608020445',
 '/cnrm/vegeo/pinaultf/data/from-ipma/cache/input-al1-2016/MSG//2016/08/02/HDF5_LSASAF_MSG_VZA_MSG-Disk_201608020445',
 '/cnrm/vegeo/pinaultf/experiments/exp2/enable.aerosol.in.al1.smac.x.0.0/data/out-al1//20160802/HDF5_LSASAF_MSG_006-BRF_Disk_201608020500',
 '/cnrm/vegeo/pinaultf/experiments/exp2/enable.aerosol.in.al1.smac.x.0.0/data/out-al1//20160802/HDF5_LSASAF_MSG_008-BRF_Disk_201608020500',
 '/cnrm/vegeo/pinaultf/experiments/exp2/enable.aerosol.in.al1.smac.x.0.0/data/out-al1//20160802/HDF5_LSASAF_MSG_016-BRF_Disk_201608020500',
 '/cnrm/vegeo/pinaultf/data/msg/angles/solar/2016/08/02//HDF5_LSASAF_MSG_SAA_MSG-Disk_201608020500',
 '/cnrm/vegeo/pinaultf/data/msg/angles/solar/2016/08/02//HDF5_LSASAF_MSG_SZA_MSG-Disk_201608020500',
 '/cnrm/vegeo/pinaultf/data/from-ipma/cache/input-al1-2016/MSG//2016/08/02/HDF5_LSASAF_MSG_VAA_MSG-Disk_201608020500',
 '/cnrm/vegeo/pinaultf/data/from-ipma/cache/input-al1-2016/MSG//2016/08/02/HDF5_LSASAF_MSG_VZA_MSG-Disk_201608020500',
 '/cnrm/vegeo/pinaultf/experiments/exp2/enable.aerosol.in.al1.smac.x.0.0/data/out-al1//20160802/HDF5_LSASAF_MSG_006-BRF_Disk_201608020515',
 '/cnrm/vegeo/pinaultf/experiments/exp2/enable.aerosol.in.al1.smac.x.0.0/data/out-al1//20160802/HDF5_LSASAF_MSG_008-BRF_Disk_201608020515',
 '/cnrm/vegeo/pinaultf/experiments/exp2/enable.aerosol.in.al1.smac.x.0.0/data/out-al1//20160802/HDF5_LSASAF_MSG_016-BRF_Disk_201608020515',
 '/cnrm/vegeo/pinaultf/data/msg/angles/solar/2016/08/02//HDF5_LSASAF_MSG_SAA_MSG-Disk_201608020515',
 '/cnrm/vegeo/pinaultf/data/msg/angles/solar/2016/08/02//HDF5_LSASAF_MSG_SZA_MSG-Disk_201608020515',
 '/cnrm/vegeo/pinaultf/data/from-ipma/cache/input-al1-2016/MSG//2016/08/02/HDF5_LSASAF_MSG_VAA_MSG-Disk_201608020515',
 '/cnrm/vegeo/pinaultf/data/from-ipma/cache/input-al1-2016/MSG//2016/08/02/HDF5_LSASAF_MSG_VZA_MSG-Disk_201608020515',
 '/cnrm/vegeo/pinaultf/experiments/exp2/enable.aerosol.in.al1.smac.x.0.0/data/out-al1//20160802/HDF5_LSASAF_MSG_006-BRF_Disk_201608020530',
 '/cnrm/vegeo/pinaultf/experiments/exp2/enable.aerosol.in.al1.smac.x.0.0/data/out-al1//20160802/HDF5_LSASAF_MSG_008-BRF_Disk_201608020530',
 '/cnrm/vegeo/pinaultf/experiments/exp2/enable.aerosol.in.al1.smac.x.0.0/data/out-al1//20160802/HDF5_LSASAF_MSG_016-BRF_Disk_201608020530',
 '/cnrm/vegeo/pinaultf/data/msg/angles/solar/2016/08/02//HDF5_LSASAF_MSG_SAA_MSG-Disk_201608020530',
 '/cnrm/vegeo/pinaultf/data/msg/angles/solar/2016/08/02//HDF5_LSASAF_MSG_SZA_MSG-Disk_201608020530',
 '/cnrm/vegeo/pinaultf/data/from-ipma/cache/input-al1-2016/MSG//2016/08/02/HDF5_LSASAF_MSG_VAA_MSG-Disk_201608020530',
 '/cnrm/vegeo/pinaultf/data/from-ipma/cache/input-al1-2016/MSG//2016/08/02/HDF5_LSASAF_MSG_VZA_MSG-Disk_201608020530',
 '/cnrm/vegeo/pinaultf/experiments/exp2/enable.aerosol.in.al1.smac.x.0.0/data/out-al1//20160802/HDF5_LSASAF_MSG_006-BRF_Disk_201608020545',
 '/cnrm/vegeo/pinaultf/experiments/exp2/enable.aerosol.in.al1.smac.x.0.0/data/out-al1//20160802/HDF5_LSASAF_MSG_008-BRF_Disk_201608020545',
 '/cnrm/vegeo/pinaultf/experiments/exp2/enable.aerosol.in.al1.smac.x.0.0/data/out-al1//20160802/HDF5_LSASAF_MSG_016-BRF_Disk_201608020545',
 '/cnrm/vegeo/pinaultf/data/msg/angles/solar/2016/08/02//HDF5_LSASAF_MSG_SAA_MSG-Disk_201608020545',
 '/cnrm/vegeo/pinaultf/data/msg/angles/solar/2016/08/02//HDF5_LSASAF_MSG_SZA_MSG-Disk_201608020545',
 '/cnrm/vegeo/pinaultf/data/from-ipma/cache/input-al1-2016/MSG//2016/08/02/HDF5_LSASAF_MSG_VAA_MSG-Disk_201608020545',
 '/cnrm/vegeo/pinaultf/data/from-ipma/cache/input-al1-2016/MSG//2016/08/02/HDF5_LSASAF_MSG_VZA_MSG-Disk_201608020545',
 '/cnrm/vegeo/pinaultf/experiments/exp2/enable.aerosol.in.al1.smac.x.0.0/data/out-al1//20160802/HDF5_LSASAF_MSG_006-BRF_Disk_201608020600',
 '/cnrm/vegeo/pinaultf/experiments/exp2/enable.aerosol.in.al1.smac.x.0.0/data/out-al1//20160802/HDF5_LSASAF_MSG_008-BRF_Disk_201608020600',
 '/cnrm/vegeo/pinaultf/experiments/exp2/enable.aerosol.in.al1.smac.x.0.0/data/out-al1//20160802/HDF5_LSASAF_MSG_016-BRF_Disk_201608020600',
 '/cnrm/vegeo/pinaultf/data/msg/angles/solar/2016/08/02//HDF5_LSASAF_MSG_SAA_MSG-Disk_201608020600',
 '/cnrm/vegeo/pinaultf/data/msg/angles/solar/2016/08/02//HDF5_LSASAF_MSG_SZA_MSG-Disk_201608020600',
 '/cnrm/vegeo/pinaultf/data/from-ipma/cache/input-al1-2016/MSG//2016/08/02/HDF5_LSASAF_MSG_VAA_MSG-Disk_201608020600',
 '/cnrm/vegeo/pinaultf/data/from-ipma/cache/input-al1-2016/MSG//2016/08/02/HDF5_LSASAF_MSG_VZA_MSG-Disk_201608020600',
 '/cnrm/vegeo/pinaultf/experiments/exp2/enable.aerosol.in.al1.smac.x.0.0/data/out-al1//20160802/HDF5_LSASAF_MSG_006-BRF_Disk_201608020615',
 '/cnrm/vegeo/pinaultf/experiments/exp2/enable.aerosol.in.al1.smac.x.0.0/data/out-al1//20160802/HDF5_LSASAF_MSG_008-BRF_Disk_201608020615',
 '/cnrm/vegeo/pinaultf/experiments/exp2/enable.aerosol.in.al1.smac.x.0.0/data/out-al1//20160802/HDF5_LSASAF_MSG_016-BRF_Disk_201608020615',
 '/cnrm/vegeo/pinaultf/data/msg/angles/solar/2016/08/02//HDF5_LSASAF_MSG_SAA_MSG-Disk_201608020615',
 '/cnrm/vegeo/pinaultf/data/msg/angles/solar/2016/08/02//HDF5_LSASAF_MSG_SZA_MSG-Disk_201608020615',
 '/cnrm/vegeo/pinaultf/data/from-ipma/cache/input-al1-2016/MSG//2016/08/02/HDF5_LSASAF_MSG_VAA_MSG-Disk_201608020615',
 '/cnrm/vegeo/pinaultf/data/from-ipma/cache/input-al1-2016/MSG//2016/08/02/HDF5_LSASAF_MSG_VZA_MSG-Disk_201608020615',
 '/cnrm/vegeo/pinaultf/experiments/exp2/enable.aerosol.in.al1.smac.x.0.0/data/out-al1//20160802/HDF5_LSASAF_MSG_006-BRF_Disk_201608020630',
 '/cnrm/vegeo/pinaultf/experiments/exp2/enable.aerosol.in.al1.smac.x.0.0/data/out-al1//20160802/HDF5_LSASAF_MSG_008-BRF_Disk_201608020630',
 '/cnrm/vegeo/pinaultf/experiments/exp2/enable.aerosol.in.al1.smac.x.0.0/data/out-al1//20160802/HDF5_LSASAF_MSG_016-BRF_Disk_201608020630',
 '/cnrm/vegeo/pinaultf/data/msg/angles/solar/2016/08/02//HDF5_LSASAF_MSG_SAA_MSG-Disk_201608020630',
 '/cnrm/vegeo/pinaultf/data/msg/angles/solar/2016/08/02//HDF5_LSASAF_MSG_SZA_MSG-Disk_201608020630',
 '/cnrm/vegeo/pinaultf/data/from-ipma/cache/input-al1-2016/MSG//2016/08/02/HDF5_LSASAF_MSG_VAA_MSG-Disk_201608020630',
 '/cnrm/vegeo/pinaultf/data/from-ipma/cache/input-al1-2016/MSG//2016/08/02/HDF5_LSASAF_MSG_VZA_MSG-Disk_201608020630',
 '/cnrm/vegeo/pinaultf/experiments/exp2/enable.aerosol.in.al1.smac.x.0.0/data/out-al1//20160802/HDF5_LSASAF_MSG_006-BRF_Disk_201608020645',
 '/cnrm/vegeo/pinaultf/experiments/exp2/enable.aerosol.in.al1.smac.x.0.0/data/out-al1//20160802/HDF5_LSASAF_MSG_008-BRF_Disk_201608020645',
 '/cnrm/vegeo/pinaultf/experiments/exp2/enable.aerosol.in.al1.smac.x.0.0/data/out-al1//20160802/HDF5_LSASAF_MSG_016-BRF_Disk_201608020645',
 '/cnrm/vegeo/pinaultf/data/msg/angles/solar/2016/08/02//HDF5_LSASAF_MSG_SAA_MSG-Disk_201608020645',
 '/cnrm/vegeo/pinaultf/data/msg/angles/solar/2016/08/02//HDF5_LSASAF_MSG_SZA_MSG-Disk_201608020645',
 '/cnrm/vegeo/pinaultf/data/from-ipma/cache/input-al1-2016/MSG//2016/08/02/HDF5_LSASAF_MSG_VAA_MSG-Disk_201608020645',
 '/cnrm/vegeo/pinaultf/data/from-ipma/cache/input-al1-2016/MSG//2016/08/02/HDF5_LSASAF_MSG_VZA_MSG-Disk_201608020645',
 '/cnrm/vegeo/pinaultf/experiments/exp2/enable.aerosol.in.al1.smac.x.0.0/data/out-al1//20160802/HDF5_LSASAF_MSG_006-BRF_Disk_201608020700',
 '/cnrm/vegeo/pinaultf/experiments/exp2/enable.aerosol.in.al1.smac.x.0.0/data/out-al1//20160802/HDF5_LSASAF_MSG_008-BRF_Disk_201608020700',
 '/cnrm/vegeo/pinaultf/experiments/exp2/enable.aerosol.in.al1.smac.x.0.0/data/out-al1//20160802/HDF5_LSASAF_MSG_016-BRF_Disk_201608020700',
 '/cnrm/vegeo/pinaultf/data/msg/angles/solar/2016/08/02//HDF5_LSASAF_MSG_SAA_MSG-Disk_201608020700',
 '/cnrm/vegeo/pinaultf/data/msg/angles/solar/2016/08/02//HDF5_LSASAF_MSG_SZA_MSG-Disk_201608020700',
 '/cnrm/vegeo/pinaultf/data/from-ipma/cache/input-al1-2016/MSG//2016/08/02/HDF5_LSASAF_MSG_VAA_MSG-Disk_201608020700',
 '/cnrm/vegeo/pinaultf/data/from-ipma/cache/input-al1-2016/MSG//2016/08/02/HDF5_LSASAF_MSG_VZA_MSG-Disk_201608020700',
 '/cnrm/vegeo/pinaultf/experiments/exp2/enable.aerosol.in.al1.smac.x.0.0/data/out-al1//20160802/HDF5_LSASAF_MSG_006-BRF_Disk_201608020715',
 '/cnrm/vegeo/pinaultf/experiments/exp2/enable.aerosol.in.al1.smac.x.0.0/data/out-al1//20160802/HDF5_LSASAF_MSG_008-BRF_Disk_201608020715',
 '/cnrm/vegeo/pinaultf/experiments/exp2/enable.aerosol.in.al1.smac.x.0.0/data/out-al1//20160802/HDF5_LSASAF_MSG_016-BRF_Disk_201608020715',
 '/cnrm/vegeo/pinaultf/data/msg/angles/solar/2016/08/02//HDF5_LSASAF_MSG_SAA_MSG-Disk_201608020715',
 '/cnrm/vegeo/pinaultf/data/msg/angles/solar/2016/08/02//HDF5_LSASAF_MSG_SZA_MSG-Disk_201608020715',
 '/cnrm/vegeo/pinaultf/data/from-ipma/cache/input-al1-2016/MSG//2016/08/02/HDF5_LSASAF_MSG_VAA_MSG-Disk_201608020715',
 '/cnrm/vegeo/pinaultf/data/from-ipma/cache/input-al1-2016/MSG//2016/08/02/HDF5_LSASAF_MSG_VZA_MSG-Disk_201608020715',
 '/cnrm/vegeo/pinaultf/experiments/exp2/enable.aerosol.in.al1.smac.x.0.0/data/out-al1//20160802/HDF5_LSASAF_MSG_006-BRF_Disk_201608020730',
 '/cnrm/vegeo/pinaultf/experiments/exp2/enable.aerosol.in.al1.smac.x.0.0/data/out-al1//20160802/HDF5_LSASAF_MSG_008-BRF_Disk_201608020730',
 '/cnrm/vegeo/pinaultf/experiments/exp2/enable.aerosol.in.al1.smac.x.0.0/data/out-al1//20160802/HDF5_LSASAF_MSG_016-BRF_Disk_201608020730',
 '/cnrm/vegeo/pinaultf/data/msg/angles/solar/2016/08/02//HDF5_LSASAF_MSG_SAA_MSG-Disk_201608020730',
 '/cnrm/vegeo/pinaultf/data/msg/angles/solar/2016/08/02//HDF5_LSASAF_MSG_SZA_MSG-Disk_201608020730',
 '/cnrm/vegeo/pinaultf/data/from-ipma/cache/input-al1-2016/MSG//2016/08/02/HDF5_LSASAF_MSG_VAA_MSG-Disk_201608020730',
 '/cnrm/vegeo/pinaultf/data/from-ipma/cache/input-al1-2016/MSG//2016/08/02/HDF5_LSASAF_MSG_VZA_MSG-Disk_201608020730',
 '/cnrm/vegeo/pinaultf/experiments/exp2/enable.aerosol.in.al1.smac.x.0.0/data/out-al1//20160802/HDF5_LSASAF_MSG_006-BRF_Disk_201608020745',
 '/cnrm/vegeo/pinaultf/experiments/exp2/enable.aerosol.in.al1.smac.x.0.0/data/out-al1//20160802/HDF5_LSASAF_MSG_008-BRF_Disk_201608020745',
 '/cnrm/vegeo/pinaultf/experiments/exp2/enable.aerosol.in.al1.smac.x.0.0/data/out-al1//20160802/HDF5_LSASAF_MSG_016-BRF_Disk_201608020745',
 '/cnrm/vegeo/pinaultf/data/msg/angles/solar/2016/08/02//HDF5_LSASAF_MSG_SAA_MSG-Disk_201608020745',
 '/cnrm/vegeo/pinaultf/data/msg/angles/solar/2016/08/02//HDF5_LSASAF_MSG_SZA_MSG-Disk_201608020745',
 '/cnrm/vegeo/pinaultf/data/from-ipma/cache/input-al1-2016/MSG//2016/08/02/HDF5_LSASAF_MSG_VAA_MSG-Disk_201608020745',
 '/cnrm/vegeo/pinaultf/data/from-ipma/cache/input-al1-2016/MSG//2016/08/02/HDF5_LSASAF_MSG_VZA_MSG-Disk_201608020745',
 '/cnrm/vegeo/pinaultf/experiments/exp2/enable.aerosol.in.al1.smac.x.0.0/data/out-al1//20160802/HDF5_LSASAF_MSG_006-BRF_Disk_201608020800',
 '/cnrm/vegeo/pinaultf/experiments/exp2/enable.aerosol.in.al1.smac.x.0.0/data/out-al1//20160802/HDF5_LSASAF_MSG_008-BRF_Disk_201608020800',
 '/cnrm/vegeo/pinaultf/experiments/exp2/enable.aerosol.in.al1.smac.x.0.0/data/out-al1//20160802/HDF5_LSASAF_MSG_016-BRF_Disk_201608020800',
 '/cnrm/vegeo/pinaultf/data/msg/angles/solar/2016/08/02//HDF5_LSASAF_MSG_SAA_MSG-Disk_201608020800',
 '/cnrm/vegeo/pinaultf/data/msg/angles/solar/2016/08/02//HDF5_LSASAF_MSG_SZA_MSG-Disk_201608020800',
 '/cnrm/vegeo/pinaultf/data/from-ipma/cache/input-al1-2016/MSG//2016/08/02/HDF5_LSASAF_MSG_VAA_MSG-Disk_201608020800',
 '/cnrm/vegeo/pinaultf/data/from-ipma/cache/input-al1-2016/MSG//2016/08/02/HDF5_LSASAF_MSG_VZA_MSG-Disk_201608020800',
 '/cnrm/vegeo/pinaultf/experiments/exp2/enable.aerosol.in.al1.smac.x.0.0/data/out-al1//20160802/HDF5_LSASAF_MSG_006-BRF_Disk_201608020815',
 '/cnrm/vegeo/pinaultf/experiments/exp2/enable.aerosol.in.al1.smac.x.0.0/data/out-al1//20160802/HDF5_LSASAF_MSG_008-BRF_Disk_201608020815',
 '/cnrm/vegeo/pinaultf/experiments/exp2/enable.aerosol.in.al1.smac.x.0.0/data/out-al1//20160802/HDF5_LSASAF_MSG_016-BRF_Disk_201608020815',
 '/cnrm/vegeo/pinaultf/data/msg/angles/solar/2016/08/02//HDF5_LSASAF_MSG_SAA_MSG-Disk_201608020815',
 '/cnrm/vegeo/pinaultf/data/msg/angles/solar/2016/08/02//HDF5_LSASAF_MSG_SZA_MSG-Disk_201608020815',
 '/cnrm/vegeo/pinaultf/data/from-ipma/cache/input-al1-2016/MSG//2016/08/02/HDF5_LSASAF_MSG_VAA_MSG-Disk_201608020815',
 '/cnrm/vegeo/pinaultf/data/from-ipma/cache/input-al1-2016/MSG//2016/08/02/HDF5_LSASAF_MSG_VZA_MSG-Disk_201608020815',
 '/cnrm/vegeo/pinaultf/experiments/exp2/enable.aerosol.in.al1.smac.x.0.0/data/out-al1//20160802/HDF5_LSASAF_MSG_006-BRF_Disk_201608020830',
 '/cnrm/vegeo/pinaultf/experiments/exp2/enable.aerosol.in.al1.smac.x.0.0/data/out-al1//20160802/HDF5_LSASAF_MSG_008-BRF_Disk_201608020830',