 &NAM_ALG_MODES
 MODE      = 1
 /
 &NAM_ALG_INPUT_FILES_PATH
 YFILEINP    = 'data_msg/latlon//HDF5_LSASAF_MSG_LAT_MSG-Disk_201412091000',
 'input/HDF5_LSASAF_MSG_AL-C1-K012_Disk_201607312345',
 'input/HDF5_LSASAF_MSG_AL-C1-CK_Disk_201607312345',
 'input/HDF5_LSASAF_MSG_AL-C2-K012_Disk_201607312345',
 'input/HDF5_LSASAF_MSG_AL-C2-CK_Disk_201607312345',
 'input/HDF5_LSASAF_MSG_AL-C3-K012_Disk_201607312345',
 'input/HDF5_LSASAF_MSG_AL-C3-CK_Disk_201607312345',
 'data_msg/toc-lwcs/BRF-20160801/HDF5_LSASAF_MSG_006-BRF_MSG-Disk_201608010000.h5',
 'data_msg/toc-lwcs/BRF-20160801/HDF5_LSASAF_MSG_008-BRF_MSG-Disk_201608010000.h5',
 'data_msg/toc-lwcs/BRF-20160801/HDF5_LSASAF_MSG_016-BRF_MSG-Disk_201608010000.h5',
 'data_msg/view-angle/ANG-20160801/HDF5_LSASAF_MSG_SAA_MSG-Disk_201608010000.h5',
 'data_msg/view-angle/ANG-20160801/HDF5_LSASAF_MSG_SZA_MSG-Disk_201608010000.h5',
 'data_msg/view-angle/HDF5_LSASAF_MSG_VAA_MSG-Disk_201601151200.h5',
 'data_msg/view-angle/HDF5_LSASAF_MSG_VZA_MSG-Disk_201601151200.h5',
 'data_msg/toc-lwcs/BRF-20160801/HDF5_LSASAF_MSG_006-BRF_MSG-Disk_201608010015.h5',
 'data_msg/toc-lwcs/BRF-20160801/HDF5_LSASAF_MSG_008-BRF_MSG-Disk_201608010015.h5',
 'data_msg/toc-lwcs/BRF-20160801/HDF5_LSASAF_MSG_016-BRF_MSG-Disk_201608010015.h5',
 'data_msg/view-angle/ANG-20160801/HDF5_LSASAF_MSG_SAA_MSG-Disk_201608010015.h5',
 'data_msg/view-angle/ANG-20160801/HDF5_LSASAF_MSG_SZA_MSG-Disk_201608010015.h5',
 'data_msg/view-angle/HDF5_LSASAF_MSG_VAA_MSG-Disk_201601151200.h5',
 'data_msg/view-angle/HDF5_LSASAF_MSG_VZA_MSG-Disk_201601151200.h5',
 'data_msg/toc-lwcs/BRF-20160801/HDF5_LSASAF_MSG_006-BRF_MSG-Disk_201608010030.h5',
 'data_msg/toc-lwcs/BRF-20160801/HDF5_LSASAF_MSG_008-BRF_MSG-Disk_201608010030.h5',
 'data_msg/toc-lwcs/BRF-20160801/HDF5_LSASAF_MSG_016-BRF_MSG-Disk_201608010030.h5',
 'data_msg/view-angle/ANG-20160801/HDF5_LSASAF_MSG_SAA_MSG-Disk_201608010030.h5',
 'data_msg/view-angle/ANG-20160801/HDF5_LSASAF_MSG_SZA_MSG-Disk_201608010030.h5',
 'data_msg/view-angle/HDF5_LSASAF_MSG_VAA_MSG-Disk_201601151200.h5',
 'data_msg/view-angle/HDF5_LSASAF_MSG_VZA_MSG-Disk_201601151200.h5',
 'data_msg/toc-lwcs/BRF-20160801/HDF5_LSASAF_MSG_006-BRF_MSG-Disk_201608010045.h5',
 'data_msg/toc-lwcs/BRF-20160801/HDF5_LSASAF_MSG_008-BRF_MSG-Disk_201608010045.h5',
 'data_msg/toc-lwcs/BRF-20160801/HDF5_LSASAF_MSG_016-BRF_MSG-Disk_201608010045.h5',
 'data_msg/view-angle/ANG-20160801/HDF5_LSASAF_MSG_SAA_MSG-Disk_201608010045.h5',
 'data_msg/view-angle/ANG-20160801/HDF5_LSASAF_MSG_SZA_MSG-Disk_201608010045.h5',
 'data_msg/view-angle/HDF5_LSASAF_MSG_VAA_MSG-Disk_201601151200.h5',
 'data_msg/view-angle/HDF5_LSASAF_MSG_VZA_MSG-Disk_201601151200.h5',
 'data_msg/toc-lwcs/BRF-20160801/HDF5_LSASAF_MSG_006-BRF_MSG-Disk_201608010100.h5',
 'data_msg/toc-lwcs/BRF-20160801/HDF5_LSASAF_MSG_008-BRF_MSG-Disk_201608010100.h5',
 'data_msg/toc-lwcs/BRF-20160801/HDF5_LSASAF_MSG_016-BRF_MSG-Disk_201608010100.h5',
 'data_msg/view-angle/ANG-20160801/HDF5_LSASAF_MSG_SAA_MSG-Disk_201608010100.h5',
 'data_msg/view-angle/ANG-20160801/HDF5_LSASAF_MSG_SZA_MSG-Disk_201608010100.h5',
 'data_msg/view-angle/HDF5_LSASAF_MSG_VAA_MSG-Disk_201601151200.h5',
 'data_msg/view-angle/HDF5_LSASAF_MSG_VZA_MSG-Disk_201601151200.h5',
 'data_msg/toc-lwcs/BRF-20160801/HDF5_LSASAF_MSG_006-BRF_MSG-Disk_201608010115.h5',
 'data_msg/toc-lwcs/BRF-20160801/HDF5_LSASAF_MSG_008-BRF_MSG-Disk_201608010115.h5',
 'data_msg/toc-lwcs/BRF-20160801/HDF5_LSASAF_MSG_016-BRF_MSG-Disk_201608010115.h5',
 'data_msg/view-angle/ANG-20160801/HDF5_LSASAF_MSG_SAA_MSG-Disk_201608010115.h5',
 'data_msg/view-angle/ANG-20160801/HDF5_LSASAF_MSG_SZA_MSG-Disk_201608010115.h5',
 'data_msg/view-angle/HDF5_LSASAF_MSG_VAA_MSG-Disk_201601151200.h5',
 'data_msg/view-angle/HDF5_LSASAF_MSG_VZA_MSG-Disk_201601151200.h5',
 'data_msg/toc-lwcs/BRF-20160801/HDF5_LSASAF_MSG_006-BRF_MSG-Disk_201608010130.h5',
 'data_msg/toc-lwcs/BRF-20160801/HDF5_LSASAF_MSG_008-BRF_MSG-Disk_201608010130.h5',
 'data_msg/toc-lwcs/BRF-20160801/HDF5_LSASAF_MSG_016-BRF_MSG-Disk_201608010130.h5',
 'data_msg/view-angle/ANG-20160801/HDF5_LSASAF_MSG_SAA_MSG-Disk_201608010130.h5',
 'data_msg/view-angle/ANG-20160801/HDF5_LSASAF_MSG_SZA_MSG-Disk_201608010130.h5',
 'data_msg/view-angle/HDF5_LSASAF_MSG_VAA_MSG-Disk_201601151200.h5',
 'data_msg/view-angle/HDF5_LSASAF_MSG_VZA_MSG-Disk_201601151200.h5',
 'data_msg/toc-lwcs/BRF-20160801/HDF5_LSASAF_MSG_006-BRF_MSG-Disk_201608010145.h5',
 'data_msg/toc-lwcs/BRF-20160801/HDF5_LSASAF_MSG_008-BRF_MSG-Disk_201608010145.h5',
 'data_msg/toc-lwcs/BRF-20160801/HDF5_LSASAF_MSG_016-BRF_MSG-Disk_201608010145.h5',
 'data_msg/view-angle/ANG-20160801/HDF5_LSASAF_MSG_SAA_MSG-Disk_201608010145.h5',
 'data_msg/view-angle/ANG-20160801/HDF5_LSASAF_MSG_SZA_MSG-Disk_201608010145.h5',
 'data_msg/view-angle/HDF5_LSASAF_MSG_VAA_MSG-Disk_201601151200.h5',
 'data_msg/view-angle/HDF5_LSASAF_MSG_VZA_MSG-Disk_201601151200.h5',
 'data_msg/toc-lwcs/BRF-20160801/HDF5_LSASAF_MSG_006-BRF_MSG-Disk_201608010200.h5',
 'data_msg/toc-lwcs/BRF-20160801/HDF5_LSASAF_MSG_008-BRF_MSG-Disk_201608010200.h5',
 'data_msg/toc-lwcs/BRF-20160801/HDF5_LSASAF_MSG_016-BRF_MSG-Disk_201608010200.h5',
 'data_msg/view-angle/ANG-20160801/HDF5_LSASAF_MSG_SAA_MSG-Disk_201608010200.h5',
 'data_msg/view-angle/ANG-20160801/HDF5_LSASAF_MSG_SZA_MSG-Disk_201608010200.h5',
 'data_msg/view-angle/HDF5_LSASAF_MSG_VAA_MSG-Disk_201601151200.h5',
 'data_msg/view-angle/HDF5_LSASAF_MSG_VZA_MSG-Disk_201601151200.h5',
 'data_msg/toc-lwcs/BRF-20160801/HDF5_LSASAF_MSG_006-BRF_MSG-Disk_201608010215.h5',
 'data_msg/toc-lwcs/BRF-20160801/HDF5_LSASAF_MSG_008-BRF_MSG-Disk_201608010215.h5',
 'data_msg/toc-lwcs/BRF-20160801/HDF5_LSASAF_MSG_016-BRF_MSG-Disk_201608010215.h5',
 'data_msg/view-angle/ANG-20160801/HDF5_LSASAF_MSG_SAA_MSG-Disk_201608010215.h5',
 'data_msg/view-angle/ANG-20160801/HDF5_LSASAF_MSG_SZA_MSG-Disk_201608010215.h5',
 'data_msg/view-angle/HDF5_LSASAF_MSG_VAA_MSG-Disk_201601151200.h5',
 'data_msg/view-angle/HDF5_LSASAF_MSG_VZA_MSG-Disk_201601151200.h5',
 'data_msg/toc-lwcs/BRF-20160801/HDF5_LSASAF_MSG_006-BRF_MSG-Disk_201608010230.h5',
 'data_msg/toc-lwcs/BRF-20160801/HDF5_LSASAF_MSG_008-BRF_MSG-Disk_201608010230.h5',
 'data_msg/toc-lwcs/BRF-20160801/HDF5_LSASAF_MSG_016-BRF_MSG-Disk_201608010230.h5',
 'data_msg/view-angle/ANG-20160801/HDF5_LSASAF_MSG_SAA_MSG-Disk_201608010230.h5',
 'data_msg/view-angle/ANG-20160801/HDF5_LSASAF_MSG_SZA_MSG-Disk_201608010230.h5',
 'data_msg/view-angle/HDF5_LSASAF_MSG_VAA_MSG-Disk_201601151200.h5',
 'data_msg/view-angle/HDF5_LSASAF_MSG_VZA_MSG-Disk_201601151200.h5',
 'data_msg/toc-lwcs/BRF-20160801/HDF5_LSASAF_MSG_006-BRF_MSG-Disk_201608010245.h5',
 'data_msg/toc-lwcs/BRF-20160801/HDF5_LSASAF_MSG_008-BRF_MSG-Disk_201608010245.h5',
 'data_msg/toc-lwcs/BRF-20160801/HDF5_LSASAF_MSG_016-BRF_MSG-Disk_201608010245.h5',
 'data_msg/view-angle/ANG-20160801/HDF5_LSASAF_MSG_SAA_MSG-Disk_201608010245.h5',
 'data_msg/view-angle/ANG-20160801/HDF5_LSASAF_MSG_SZA_MSG-Disk_201608010245.h5',
 'data_msg/view-angle/HDF5_LSASAF_MSG_VAA_MSG-Disk_201601151200.h5',
 'data_msg/view-angle/HDF5_LSASAF_MSG_VZA_MSG-Disk_201601151200.h5',
 'data_msg/toc-lwcs/BRF-20160801/HDF5_LSASAF_MSG_006-BRF_MSG-Disk_201608010300.h5',
 'data_msg/toc-lwcs/BRF-20160801/HDF5_LSASAF_MSG_008-BRF_MSG-Disk_201608010300.h5',
 'data_msg/toc-lwcs/BRF-20160801/HDF5_LSASAF_MSG_016-BRF_MSG-Disk_201608010300.h5',
 'data_msg/view-angle/ANG-20160801/HDF5_LSASAF_MSG_SAA_MSG-Disk_201608010300.h5',
 'data_msg/view-angle/ANG-20160801/HDF5_LSASAF_MSG_SZA_MSG-Disk_201608010300.h5',
 'data_msg/view-angle/HDF5_LSASAF_MSG_VAA_MSG-Disk_201601151200.h5',
 'data_msg/view-angle/HDF5_LSASAF_MSG_VZA_MSG-Disk_201601151200.h5',
 'data_msg/toc-lwcs/BRF-20160801/HDF5_LSASAF_MSG_006-BRF_MSG-Disk_201608010315.h5',
 'data_msg/toc-lwcs/BRF-20160801/HDF5_LSASAF_MSG_008-BRF_MSG-Disk_201608010315.h5',
 'data_msg/toc-lwcs/BRF-20160801/HDF5_LSASAF_MSG_016-BRF_MSG-Disk_201608010315.h5',
 'data_msg/view-angle/ANG-20160801/HDF5_LSASAF_MSG_SAA_MSG-Disk_201608010315.h5',
 'data_msg/view-angle/ANG-20160801/HDF5_LSASAF_MSG_SZA_MSG-Disk_201608010315.h5',
 'data_msg/view-angle/HDF5_LSASAF_MSG_VAA_MSG-Disk_201601151200.h5',
 'data_msg/view-angle/HDF5_LSASAF_MSG_VZA_MSG-Disk_201601151200.h5',
 'data_msg/toc-lwcs/BRF-20160801/HDF5_LSASAF_MSG_006-BRF_MSG-Disk_201608010330.h5',
 'data_msg/toc-lwcs/BRF-20160801/HDF5_LSASAF_MSG_008-BRF_MSG-Disk_201608010330.h5',
 'data_msg/toc-lwcs/BRF-20160801/HDF5_LSASAF_MSG_016-BRF_MSG-Disk_201608010330.h5',
 'data_msg/view-angle/ANG-20160801/HDF5_LSASAF_MSG_SAA_MSG-Disk_201608010330.h5',
 'data_msg/view-angle/ANG-20160801/HDF5_LSASAF_MSG_SZA_MSG-Disk_201608010330.h5',
 'data_msg/view-angle/HDF5_LSASAF_MSG_VAA_MSG-Disk_201601151200.h5',
 'data_msg/view-angle/HDF5_LSASAF_MSG_VZA_MSG-Disk_201601151200.h5',
 'data_msg/toc-lwcs/BRF-20160801/HDF5_LSASAF_MSG_006-BRF_MSG-Disk_201608010345.h5',
 'data_msg/toc-lwcs/BRF-20160801/HDF5_LSASAF_MSG_008-BRF_MSG-Disk_201608010345.h5',
 'data_msg/toc-lwcs/BRF-20160801/HDF5_LSASAF_MSG_016-BRF_MSG-Disk_201608010345.h5',
 'data_msg/view-angle/ANG-20160801/HDF5_LSASAF_MSG_SAA_MSG-Disk_201608010345.h5',
 'data_msg/view-angle/ANG-20160801/HDF5_LSASAF_MSG_SZA_MSG-Disk_201608010345.h5',
 'data_msg/view-angle/HDF5_LSASAF_MSG_VAA_MSG-Disk_201601151200.h5',
 'data_msg/view-angle/HDF5_LSASAF_MSG_VZA_MSG-Disk_201601151200.h5',
 'data_msg/toc-lwcs/BRF-20160801/HDF5_LSASAF_MSG_006-BRF_MSG-Disk_201608010400.h5',
 'data_msg/toc-lwcs/BRF-20160801/HDF5_LSASAF_MSG_008-BRF_MSG-Disk_201608010400.h5',
 'data_msg/toc-lwcs/BRF-20160801/HDF5_LSASAF_MSG_016-BRF_MSG-Disk_201608010400.h5',
 'data_msg/view-angle/ANG-20160801/HDF5_LSASAF_MSG_SAA_MSG-Disk_201608010400.h5',
 'data_msg/view-angle/ANG-20160801/HDF5_LSASAF_MSG_SZA_MSG-Disk_201608010400.h5',
 'data_msg/view-angle/HDF5_LSASAF_MSG_VAA_MSG-Disk_201601151200.h5',
 'data_msg/view-angle/HDF5_LSASAF_MSG_VZA_MSG-Disk_201601151200.h5',
 'data_msg/toc-lwcs/BRF-20160801/HDF5_LSASAF_MSG_006-BRF_MSG-Disk_201608010415.h5',
 'data_msg/toc-lwcs/BRF-20160801/HDF5_LSASAF_MSG_008-BRF_MSG-Disk_201608010415.h5',
 'data_msg/toc-lwcs/BRF-20160801/HDF5_LSASAF_MSG_016-BRF_MSG-Disk_201608010415.h5',
 'data_msg/view-angle/ANG-20160801/HDF5_LSASAF_MSG_SAA_MSG-Disk_201608010415.h5',
 'data_msg/view-angle/ANG-20160801/HDF5_LSASAF_MSG_SZA_MSG-Disk_201608010415.h5',
 'data_msg/view-angle/HDF5_LSASAF_MSG_VAA_MSG-Disk_201601151200.h5',
 'data_msg/view-angle/HDF5_LSASAF_MSG_VZA_MSG-Disk_201601151200.h5',
 'data_msg/toc-lwcs/BRF-20160801/HDF5_LSASAF_MSG_006-BRF_MSG-Disk_201608010430.h5',
 'data_msg/toc-lwcs/BRF-20160801/HDF5_LSASAF_MSG_008-BRF_MSG-Disk_201608010430.h5',
 'data_msg/toc-lwcs/BRF-20160801/HDF5_LSASAF_MSG_016-BRF_MSG-Disk_201608010430.h5',
 'data_msg/view-angle/ANG-20160801/HDF5_LSASAF_MSG_SAA_MSG-Disk_201608010430.h5',
 'data_msg/view-angle/ANG-20160801/HDF5_LSASAF_MSG_SZA_MSG-Disk_201608010430.h5',
 'data_msg/view-angle/HDF5_LSASAF_MSG_VAA_MSG-Disk_201601151200.h5',
 'data_msg/view-angle/HDF5_LSASAF_MSG_VZA_MSG-Disk_201601151200.h5',
 'data_msg/toc-lwcs/BRF-20160801/HDF5_LSASAF_MSG_006-BRF_MSG-Disk_201608010445.h5',
 'data_msg/toc-lwcs/BRF-20160801/HDF5_LSASAF_MSG_008-BRF_MSG-Disk_201608010445.h5',
 'data_msg/toc-lwcs/BRF-20160801/HDF5_LSASAF_MSG_016-BRF_MSG-Disk_201608010445.h5',
 'data_msg/view-angle/ANG-20160801/HDF5_LSASAF_MSG_SAA_MSG-Disk_201608010445.h5',
 'data_msg/view-angle/ANG-20160801/HDF5_LSASAF_MSG_SZA_MSG-Disk_201608010445.h5',
 'data_msg/view-angle/HDF5_LSASAF_MSG_VAA_MSG-Disk_201601151200.h5',
 'data_msg/view-angle/HDF5_LSASAF_MSG_VZA_MSG-Disk_201601151200.h5',
 'data_msg/toc-lwcs/BRF-20160801/HDF5_LSASAF_MSG_006-BRF_MSG-Disk_201608010500.h5',
 'data_msg/toc-lwcs/BRF-20160801/HDF5_LSASAF_MSG_008-BRF_MSG-Disk_201608010500.h5',
 'data_msg/toc-lwcs/BRF-20160801/HDF5_LSASAF_MSG_016-BRF_MSG-Disk_201608010500.h5',
 'data_msg/view-angle/ANG-20160801/HDF5_LSASAF_MSG_SAA_MSG-Disk_201608010500.h5',
 'data_msg/view-angle/ANG-20160801/HDF5_LSASAF_MSG_SZA_MSG-Disk_201608010500.h5',
 'data_msg/view-angle/HDF5_LSASAF_MSG_VAA_MSG-Disk_201601151200.h5',
 'data_msg/view-angle/HDF5_LSASAF_MSG_VZA_MSG-Disk_201601151200.h5',
 'data_msg/toc-lwcs/BRF-20160801/HDF5_LSASAF_MSG_006-BRF_MSG-Disk_201608010515.h5',
 'data_msg/toc-lwcs/BRF-20160801/HDF5_LSASAF_MSG_008-BRF_MSG-Disk_201608010515.h5',
 'data_msg/toc-lwcs/BRF-20160801/HDF5_LSASAF_MSG_016-BRF_MSG-Disk_201608010515.h5',
 'data_msg/view-angle/ANG-20160801/HDF5_LSASAF_MSG_SAA_MSG-Disk_201608010515.h5',
 'data_msg/view-angle/ANG-20160801/HDF5_LSASAF_MSG_SZA_MSG-Disk_201608010515.h5',
 'data_msg/view-angle/HDF5_LSASAF_MSG_VAA_MSG-Disk_201601151200.h5',
 'data_msg/view-angle/HDF5_LSASAF_MSG_VZA_MSG-Disk_201601151200.h5',
 'data_msg/toc-lwcs/BRF-20160801/HDF5_LSASAF_MSG_006-BRF_MSG-Disk_201608010530.h5',
 'data_msg/toc-lwcs/BRF-20160801/HDF5_LSASAF_MSG_008-BRF_MSG-Disk_201608010530.h5',
 'data_msg/toc-lwcs/BRF-20160801/HDF5_LSASAF_MSG_016-BRF_MSG-Disk_201608010530.h5',
 'data_msg/view-angle/ANG-20160801/HDF5_LSASAF_MSG_SAA_MSG-Disk_201608010530.h5',
 'data_msg/view-angle/ANG-20160801/HDF5_LSASAF_MSG_SZA_MSG-Disk_201608010530.h5',
 'data_msg/view-angle/HDF5_LSASAF_MSG_VAA_MSG-Disk_201601151200.h5',
 'data_msg/view-angle/HDF5_LSASAF_MSG_VZA_MSG-Disk_201601151200.h5',
 'data_msg/toc-lwcs/BRF-20160801/HDF5_LSASAF_MSG_006-BRF_MSG-Disk_201608010545.h5',
 'data_msg/toc-lwcs/BRF-20160801/HDF5_LSASAF_MSG_008-BRF_MSG-Disk_201608010545.h5',
 'data_msg/toc-lwcs/BRF-20160801/HDF5_LSASAF_MSG_016-BRF_MSG-Disk_201608010545.h5',
 'data_msg/view-angle/ANG-20160801/HDF5_LSASAF_MSG_SAA_MSG-Disk_201608010545.h5',
 'data_msg/view-angle/ANG-20160801/HDF5_LSASAF_MSG_SZA_MSG-Disk_201608010545.h5',
 'data_msg/view-angle/HDF5_LSASAF_MSG_VAA_MSG-Disk_201601151200.h5',
 'data_msg/view-angle/HDF5_LSASAF_MSG_VZA_MSG-Disk_201601151200.h5',
 'data_msg/toc-lwcs/BRF-20160801/HDF5_LSASAF_MSG_006-BRF_MSG-Disk_201608010600.h5',
 'data_msg/toc-lwcs/BRF-20160801/HDF5_LSASAF_MSG_008-BRF_MSG-Disk_201608010600.h5',
 'data_msg/toc-lwcs/BRF-20160801/HDF5_LSASAF_MSG_016-BRF_MSG-Disk_201608010600.h5',
 'data_msg/view-angle/ANG-20160801/HDF5_LSASAF_MSG_SAA_MSG-Disk_201608010600.h5',
 'data_msg/view-angle/ANG-20160801/HDF5_LSASAF_MSG_SZA_MSG-Disk_201608010600.h5',
 'data_msg/view-angle/HDF5_LSASAF_MSG_VAA_MSG-Disk_201601151200.h5',
 'data_msg/view-angle/HDF5_LSASAF_MSG_VZA_MSG-Disk_201601151200.h5',
 'data_msg/toc-lwcs/BRF-20160801/HDF5_LSASAF_MSG_006-BRF_MSG-Disk_201608010615.h5',
 'data_msg/toc-lwcs/BRF-20160801/HDF5_LSASAF_MSG_008-BRF_MSG-Disk_201608010615.h5',
 'data_msg/toc-lwcs/BRF-20160801/HDF5_LSASAF_MSG_016-BRF_MSG-Disk_201608010615.h5',
 'data_msg/view-angle/ANG-20160801/HDF5_LSASAF_MSG_SAA_MSG-Disk_201608010615.h5',
 'data_msg/view-angle/ANG-20160801/HDF5_LSASAF_MSG_SZA_MSG-Disk_201608010615.h5',
 'data_msg/view-angle/HDF5_LSASAF_MSG_VAA_MSG-Disk_201601151200.h5',
 'data_msg/view-angle/HDF5_LSASAF_MSG_VZA_MSG-Disk_201601151200.h5',
 'data_msg/toc-lwcs/BRF-20160801/HDF5_LSASAF_MSG_006-BRF_MSG-Disk_201608010630.h5',
 'data_msg/toc-lwcs/BRF-20160801/HDF5_LSASAF_MSG_008-BRF_MSG-Disk_201608010630.h5',
 'data_msg/toc-lwcs/BRF-20160801/HDF5_LSASAF_MSG_016-BRF_MSG-Disk_201608010630.h5',
 'data_msg/view-angle/ANG-20160801/HDF5_LSASAF_MSG_SAA_MSG-Disk_201608010630.h5',
 'data_msg/view-angle/ANG-20160801/HDF5_LSASAF_MSG_SZA_MSG-Disk_201608010630.h5',
 'data_msg/view-angle/HDF5_LSASAF_MSG_VAA_MSG-Disk_201601151200.h5',
 'data_msg/view-angle/HDF5_LSASAF_MSG_VZA_MSG-Disk_201601151200.h5',
 'data_msg/toc-lwcs/BRF-20160801/HDF5_LSASAF_MSG_006-BRF_MSG-Disk_201608010645.h5',
 'data_msg/toc-lwcs/BRF-20160801/HDF5_LSASAF_MSG_008-BRF_MSG-Disk_201608010645.h5',
 'data_msg/toc-lwcs/BRF-20160801/HDF5_LSASAF_MSG_016-BRF_MSG-Disk_201608010645.h5',
 'data_msg/view-angle/ANG-20160801/HDF5_LSASAF_MSG_SAA_MSG-Disk_201608010645.h5',
 'data_msg/view-angle/ANG-20160801/HDF5_LSASAF_MSG_SZA_MSG-Disk_201608010645.h5',
 'data_msg/view-angle/HDF5_LSASAF_MSG_VAA_MSG-Disk_201601151200.h5',
 'data_msg/view-angle/HDF5_LSASAF_MSG_VZA_MSG-Disk_201601151200.h5',
 'data_msg/toc-lwcs/BRF-20160801/HDF5_LSASAF_MSG_006-BRF_MSG-Disk_201608010700.h5',
 'data_msg/toc-lwcs/BRF-20160801/HDF5_LSASAF_MSG_008-BRF_MSG-Disk_201608010700.h5',
 'data_msg/toc-lwcs/BRF-20160801/HDF5_LSASAF_MSG_016-BRF_MSG-Disk_201608010700.h5',
 'data_msg/view-angle/ANG-20160801/HDF5_LSASAF_MSG_SAA_MSG-Disk_201608010700.h5',
 'data_msg/view-angle/ANG-20160801/HDF5_LSASAF_MSG_SZA_MSG-Disk_201608010700.h5',
 'data_msg/view-angle/HDF5_LSASAF_MSG_VAA_MSG-Disk_201601151200.h5',
 'data_msg/view-angle/HDF5_LSASAF_MSG_VZA_MSG-Disk_201601151200.h5',
 'data_msg/toc-lwcs/BRF-20160801/HDF5_LSASAF_MSG_006-BRF_MSG-Disk_201608010715.h5',
 'data_msg/toc-lwcs/BRF-20160801/HDF5_LSASAF_MSG_008-BRF_MSG-Disk_201608010715.h5',
 'data_msg/toc-lwcs/BRF-20160801/HDF5_LSASAF_MSG_016-BRF_MSG-Disk_201608010715.h5',
 'data_msg/view-angle/ANG-20160801/HDF5_LSASAF_MSG_SAA_MSG-Disk_201608010715.h5',
 'data_msg/view-angle/ANG-20160801/HDF5_LSASAF_MSG_SZA_MSG-Disk_201608010715.h5',
 'data_msg/view-angle/HDF5_LSASAF_MSG_VAA_MSG-Disk_201601151200.h5',
 'data_msg/view-angle/HDF5_LSASAF_MSG_VZA_MSG-Disk_201601151200.h5',
 'data_msg/toc-lwcs/BRF-20160801/HDF5_LSASAF_MSG_006-BRF_MSG-Disk_201608010730.h5',
 'data_msg/toc-lwcs/BRF-20160801/HDF5_LSASAF_MSG_008-BRF_MSG-Disk_201608010730.h5',
 'data_msg/toc-lwcs/BRF-20160801/HDF5_LSASAF_MSG_016-BRF_MSG-Disk_201608010730.h5',
 'data_msg/view-angle/ANG-20160801/HDF5_LSASAF_MSG_SAA_MSG-Disk_201608010730.h5',
 'data_msg/view-angle/ANG-20160801/HDF5_LSASAF_MSG_SZA_MSG-Disk_201608010730.h5',
 'data_msg/view-angle/HDF5_LSASAF_MSG_VAA_MSG-Disk_201601151200.h5',
 'data_msg/view-angle/HDF5_LSASAF_MSG_VZA_MSG-Disk_201601151200.h5',
 'data_msg/toc-lwcs/BRF-20160801/HDF5_LSASAF_MSG_006-BRF_MSG-Disk_201608010745.h5',
 'data_msg/toc-lwcs/BRF-20160801/HDF5_LSASAF_MSG_008-BRF_MSG-Disk_201608010745.h5',
 'data_msg/toc-lwcs/BRF-20160801/HDF5_LSASAF_MSG_016-BRF_MSG-Disk_201608010745.h5',
 'data_msg/view-angle/ANG-20160801/HDF5_LSASAF_MSG_SAA_MSG-Disk_201608010745.h5',
 'data_msg/view-angle/ANG-20160801/HDF5_LSASAF_MSG_SZA_MSG-Disk_201608010745.h5',
 'data_msg/view-angle/HDF5_LSASAF_MSG_VAA_MSG-Disk_201601151200.h5',
 'data_msg/view-angle/HDF5_LSASAF_MSG_VZA_MSG-Disk_201601151200.h5',
 'data_msg/toc-lwcs/BRF-20160801/HDF5_LSASAF_MSG_006-BRF_MSG-Disk_201608010800.h5',
 'data_msg/toc-lwcs/BRF-20160801/HDF5_LSASAF_MSG_008-BRF_MSG-Disk_201608010800.h5',
 'data_msg/toc-lwcs/BRF-20160801/HDF5_LSASAF_MSG_016-BRF_MSG-Disk_201608010800.h5',
 'data_msg/view-angle/ANG-20160801/HDF5_LSASAF_MSG_SAA_MSG-Disk_201608010800.h5',
 'data_msg/view-angle/ANG-20160801/HDF5_LSASAF_MSG_SZA_MSG-Disk_201608010800.h5',
 'data_msg/view-angle/HDF5_LSASAF_MSG_VAA_MSG-Disk_201601151200.h5',
 'data_msg/view-angle/HDF5_LSASAF_MSG_VZA_MSG-Disk_201601151200.h5',
 'data_msg/toc-lwcs/BRF-20160801/HDF5_LSASAF_MSG_006-BRF_MSG-Disk_201608010815.h5',
 'data_msg/toc-lwcs/BRF-20160801/HDF5_LSASAF_MSG_008-BRF_MSG-Disk_201608010815.h5',
 'data_msg/toc-lwcs/BRF-20160801/HDF5_LSASAF_MSG_016-BRF_MSG-Disk_201608010815.h5',
 'data_msg/view-angle/ANG-20160801/HDF5_LSASAF_MSG_SAA_MSG-Disk_201608010815.h5',
 'data_msg/view-angle/ANG-20160801/HDF5_LSASAF_MSG_SZA_MSG-Disk_201608010815.h5',
 'data_msg/view-angle/HDF5_LSASAF_MSG_VAA_MSG-Disk_201601151200.h5',
 'data_msg/view-angle/HDF5_LSASAF_MSG_VZA_MSG-Disk_201601151200.h5',
 'data_msg/toc-lwcs/BRF-20160801/HDF5_LSASAF_MSG_006-BRF_MSG-Disk_201608010830.h5',
 'data_msg/toc-lwcs/BRF-20160801/HDF5_LSASAF_MSG_008-BRF_MSG-Disk_201608010830.h5',
 'data_msg/toc-lwcs/BRF-20160801/HDF5_LSASAF_MSG_016-BRF_MSG-Disk_201608010830.h5',
 'data_msg/view-angle/ANG-20160801/HDF5_LSASAF_MSG_SAA_MSG-Disk_201608010830.h5',
 'data_msg/view-angle/ANG-20160801/HDF5_LSASAF_MSG_SZA_MSG-Disk_201608010830.h5',
 'data_msg/view-angle/HDF5_LSASAF_MSG_VAA_MSG-Disk_201601151200.h5',
 'data_msg/view-angle/HDF5_LSASAF_MSG_VZA_MSG-Disk_201601151200.h5',
 'data_msg/toc-lwcs/BRF-20160801/HDF5_LSASAF_MSG_006-BRF_MSG-Disk_201608010845.h5',
 'data_msg/toc-lwcs/BRF-20160801/HDF5_LSASAF_MSG_008-BRF_MSG-Disk_201608010845.h5',
 'data_msg/toc-lwcs/BRF-20160801/HDF5_LSASAF_MSG_016-BRF_MSG-Disk_201608010845.h5',
 'data_msg/view-angle/ANG-20160801/HDF5_LSASAF_MSG_SAA_MSG-Disk_201608010845.h5',
 'data_msg/view-angle/ANG-20160801/HDF5_LSASAF_MSG_SZA_MSG-Disk_201608010845.h5',
 'data_msg/view-angle/HDF5_LSASAF_MSG_VAA_MSG-Disk_201601151200.h5',
 'data_msg/view-angle/HDF5_LSASAF_MSG_VZA_MSG-Disk_201601151200.h5',
 'data_msg/toc-lwcs/BRF-20160801/HDF5_LSASAF_MSG_006-BRF_MSG-Disk_201608010900.h5',
 'data_msg/toc-lwcs/BRF-20160801/HDF5_LSASAF_MSG_008-BRF_MSG-Disk_201608010900.h5',
 'data_msg/toc-lwcs/BRF-20160801/HDF5_LSASAF_MSG_016-BRF_MSG-Disk_201608010900.h5',
 'data_msg/view-angle/ANG-20160801/HDF5_LSASAF_MSG_SAA_MSG-Disk_201608010900.h5',
 'data_msg/view-angle/ANG-20160801/HDF5_LSASAF_MSG_SZA_MSG-Disk_201608010900.h5',
 'data_msg/view-angle/HDF5_LSASAF_MSG_VAA_MSG-Disk_201601151200.h5',
 'data_msg/view-angle/HDF5_LSASAF_MSG_VZA_MSG-Disk_201601151200.h5',
 'data_msg/toc-lwcs/BRF-20160801/HDF5_LSASAF_MSG_006-BRF_MSG-Disk_201608010915.h5',
 'data_msg/toc-lwcs/BRF-20160801/HDF5_LSASAF_MSG_008-BRF_MSG-Disk_201608010915.h5',
 'data_msg/toc-lwcs/BRF-20160801/HDF5_LSASAF_MSG_016-BRF_MSG-Disk_201608010915.h5',
 'data_msg/view-angle/ANG-20160801/HDF5_LSASAF_MSG_SAA_MSG-Disk_201608010915.h5',
 'data_msg/view-angle/ANG-20160801/HDF5_LSASAF_MSG_SZA_MSG-Disk_201608010915.h5',
 'data_msg/view-angle/HDF5_LSASAF_MSG_VAA_MSG-Disk_201601151200.h5',
 'data_msg/view-angle/HDF5_LSASAF_MSG_VZA_MSG-Disk_201601151200.h5',
 'data_msg/toc-lwcs/BRF-20160801/HDF5_LSASAF_MSG_006-BRF_MSG-Disk_201608010930.h5',
 'data_msg/toc-lwcs/BRF-20160801/HDF5_LSASAF_MSG_008-BRF_MSG-Disk_201608010930.h5',
 'data_msg/toc-lwcs/BRF-20160801/HDF5_LSASAF_MSG_016-BRF_MSG-Disk_201608010930.h5',
 'data_msg/view-angle/ANG-20160801/HDF5_LSASAF_MSG_SAA_MSG-Disk_201608010930.h5',
 'data_msg/view-angle/ANG-20160801/HDF5_LSASAF_MSG_SZA_MSG-Disk_201608010930.h5',
 'data_msg/view-angle/HDF5_LSASAF_MSG_VAA_MSG-Disk_201601151200.h5',
 'data_msg/view-angle/HDF5_LSASAF_MSG_VZA_MSG-Disk_201601151200.h5',
 'data_msg/toc-lwcs/BRF-20160801/HDF5_LSASAF_MSG_006-BRF_MSG-Disk_201608010945.h5',
 'data_msg/toc-lwcs/BRF-20160801/HDF5_LSASAF_MSG_008-BRF_MSG-Disk_201608010945.h5',
 'data_msg/toc-lwcs/BRF-20160801/HDF5_LSASAF_MSG_016-BRF_MSG-Disk_201608010945.h5',
 'data_msg/view-angle/ANG-20160801/HDF5_LSASAF_MSG_SAA_MSG-Disk_201608010945.h5',
 'data_msg/view-angle/ANG-20160801/HDF5_LSASAF_MSG_SZA_MSG-Disk_201608010945.h5',
 'data_msg/view-angle/HDF5_LSASAF_MSG_VAA_MSG-Disk_201601151200.h5',
 'data_msg/view-angle/HDF5_LSASAF_MSG_VZA_MSG-Disk_201601151200.h5',
 'data_msg/toc-lwcs/BRF-20160801/HDF5_LSASAF_MSG_006-BRF_MSG-Disk_201608011000.h5',
 'data_msg/toc-lwcs/BRF-20160801/HDF5_LSASAF_MSG_008-BRF_MSG-Disk_201608011000.h5',
 'data_msg/toc-lwcs/BRF-20160801/HDF5_LSASAF_MSG_016-BRF_MSG-Disk_201608011000.h5',
 'data_msg/view-angle/ANG-20160801/HDF5_LSASAF_MSG_SAA_MSG-Disk_201608011000.h5',
 'data_msg/view-angle/ANG-20160801/HDF5_LSASAF_MSG_SZA_MSG-Disk_201608011000.h5',
 'data_msg/view-angle/HDF5_LSASAF_MSG_VAA_MSG-Disk_201601151200.h5',
 'data_msg/view-angle/HDF5_LSASAF_MSG_VZA_MSG-Disk_201601151200.h5',
 'data_msg/toc-lwcs/BRF-20160801/HDF5_LSASAF_MSG_006-BRF_MSG-Disk_201608011015.h5',
 'data_msg/toc-lwcs/BRF-20160801/HDF5_LSASAF_MSG_008-BRF_MSG-Disk_201608011015.h5',
 'data_msg/toc-lwcs/BRF-20160801/HDF5_LSASAF_MSG_016-BRF_MSG-Disk_201608011015.h5',
 'data_msg/view-angle/ANG-20160801/HDF5_LSASAF_MSG_SAA_MSG-Disk_201608011015.h5',
 'data_msg/view-angle/ANG-20160801/HDF5_LSASAF_MSG_SZA_MSG-Disk_201608011015.h5',
 'data_msg/view-angle/HDF5_LSASAF_MSG_VAA_MSG-Disk_201601151200.h5',
 'data_msg/view-angle/HDF5_LSASAF_MSG_VZA_MSG-Disk_201601151200.h5',
 'data_msg/toc-lwcs/BRF-20160801/HDF5_LSASAF_MSG_006-BRF_MSG-Disk_201608011030.h5',
 'data_msg/toc-lwcs/BRF-20160801/HDF5_LSASAF_MSG_008-BRF_MSG-Disk_201608011030.h5',
 'data_msg/toc-lwcs/BRF-20160801/HDF5_LSASAF_MSG_016-BRF_MSG-Disk_201608011030.h5',
 'data_msg/view-angle/ANG-20160801/HDF5_LSASAF_MSG_SAA_MSG-Disk_201608011030.h5',
 'data_msg/view-angle/ANG-20160801/HDF5_LSASAF_MSG_SZA_MSG-Disk_201608011030.h5',
 'data_msg/view-angle/HDF5_LSASAF_MSG_VAA_MSG-Disk_201601151200.h5',
 'data_msg/view-angle/HDF5_LSASAF_MSG_VZA_MSG-Disk_201601151200.h5',
 'data_msg/toc-lwcs/BRF-20160801/HDF5_LSASAF_MSG_006-BRF_MSG-Disk_201608011045.h5',
 'data_msg/toc-lwcs/BRF-20160801/HDF5_LSASAF_MSG_008-BRF_MSG-Disk_201608011045.h5',
 'data_msg/toc-lwcs/BRF-20160801/HDF5_LSASAF_MSG_016-BRF_MSG-Disk_201608011045.h5',
 'data_msg/view-angle/ANG-20160801/HDF5_LSASAF_MSG_SAA_MSG-Disk_201608011045.h5',
 'data_msg/view-angle/ANG-20160801/HDF5_LSASAF_MSG_SZA_MSG-Disk_201608011045.h5',
 'data_msg/view-angle/HDF5_LSASAF_MSG_VAA_MSG-Disk_201601151200.h5',
 'data_msg/view-angle/HDF5_LSASAF_MSG_VZA_MSG-Disk_201601151200.h5',
 'data_msg/toc-lwcs/BRF-20160801/HDF5_LSASAF_MSG_006-BRF_MSG-Disk_201608011100.h5',
 'data_msg/toc-lwcs/BRF-20160801/HDF5_LSASAF_MSG_008-BRF_MSG-Disk_201608011100.h5',
 'data_msg/toc-lwcs/BRF-20160801/HDF5_LSASAF_MSG_016-BRF_MSG-Disk_201608011100.h5',
 'data_msg/view-angle/ANG-20160801/HDF5_LSASAF_MSG_SAA_MSG-Disk_201608011100.h5',
 'data_msg/view-angle/ANG-20160801/HDF5_LSASAF_MSG_SZA_MSG-Disk_201608011100.h5',
 'data_msg/view-angle/HDF5_LSASAF_MSG_VAA_MSG-Disk_201601151200.h5',
 'data_msg/view-angle/HDF5_LSASAF_MSG_VZA_MSG-Disk_201601151200.h5',
 'data_msg/toc-lwcs/BRF-20160801/HDF5_LSASAF_MSG_006-BRF_MSG-Disk_201608011115.h5',
 'data_msg/toc-lwcs/BRF-20160801/HDF5_LSASAF_MSG_008-BRF_MSG-Disk_201608011115.h5',
 'data_msg/toc-lwcs/BRF-20160801/HDF5_LSASAF_MSG_016-BRF_MSG-Disk_201608011115.h5',
 'data_msg/view-angle/ANG-20160801/HDF5_LSASAF_MSG_SAA_MSG-Disk_201608011115.h5',
 'data_msg/view-angle/ANG-20160801/HDF5_LSASAF_MSG_SZA_MSG-Disk_201608011115.h5',
 'data_msg/view-angle/HDF5_LSASAF_MSG_VAA_MSG-Disk_201601151200.h5',
 'data_msg/view-angle/HDF5_LSASAF_MSG_VZA_MSG-Disk_201601151200.h5',
 'data_msg/toc-lwcs/BRF-20160801/HDF5_LSASAF_MSG_006-BRF_MSG-Disk_201608011130.h5',
 'data_msg/toc-lwcs/BRF-20160801/HDF5_LSASAF_MSG_008-BRF_MSG-Disk_201608011130.h5',
 'data_msg/toc-lwcs/BRF-20160801/HDF5_LSASAF_MSG_016-BRF_MSG-Disk_201608011130.h5',
 'data_msg/view-angle/ANG-20160801/HDF5_LSASAF_MSG_SAA_MSG-Disk_201608011130.h5',
 'data_msg/view-angle/ANG-20160801/HDF5_LSASAF_MSG_SZA_MSG-Disk_201608011130.h5',
 'data_msg/view-angle/HDF5_LSASAF_MSG_VAA_MSG-Disk_201601151200.h5',
 'data_msg/view-angle/HDF5_LSASAF_MSG_VZA_MSG-Disk_201601151200.h5',
 'data_msg/toc-lwcs/BRF-20160801/HDF5_LSASAF_MSG_006-BRF_MSG-Disk_201608011145.h5',
 'data_msg/toc-lwcs/BRF-20160801/HDF5_LSASAF_MSG_008-BRF_MSG-Disk_201608011145.h5',
 'data_msg/toc-lwcs/BRF-20160801/HDF5_LSASAF_MSG_016-BRF_MSG-Disk_201608011145.h5',
 'data_msg/view-angle/ANG-20160801/HDF5_LSASAF_MSG_SAA_MSG-Disk_201608011145.h5',
 'data_msg/view-angle/ANG-20160801/HDF5_LSASAF_MSG_SZA_MSG-Disk_201608011145.h5',
 'data_msg/view-angle/HDF5_LSASAF_MSG_VAA_MSG-Disk_201601151200.h5',
 'data_msg/view-angle/HDF5_LSASAF_MSG_VZA_MSG-Disk_201601151200.h5',
 'data_msg/toc-lwcs/BRF-20160801/HDF5_LSASAF_MSG_006-BRF_MSG-Disk_201608011200.h5',
 'data_msg/toc-lwcs/BRF-20160801/HDF5_LSASAF_MSG_008-BRF_MSG-Disk_201608011200.h5',
 'data_msg/toc-lwcs/BRF-20160801/HDF5_LSASAF_MSG_016-BRF_MSG-Disk_201608011200.h5',
 'data_msg/view-angle/ANG-20160801/HDF5_LSASAF_MSG_SAA_MSG-Disk_201608011200.h5',
 'data_msg/view-angle/ANG-20160801/HDF5_LSASAF_MSG_SZA_MSG-Disk_201608011200.h5',
 'data_msg/view-angle/HDF5_LSASAF_MSG_VAA_MSG-Disk_201601151200.h5',
 'data_msg/view-angle/HDF5_LSASAF_MSG_VZA_MSG-Disk_201601151200.h5',
 'data_msg/toc-lwcs/BRF-20160801/HDF5_LSASAF_MSG_006-BRF_MSG-Disk_201608011215.h5',
 'data_msg/toc-lwcs/BRF-20160801/HDF5_LSASAF_MSG_008-BRF_MSG-Disk_201608011215.h5',
 'data_msg/toc-lwcs/BRF-20160801/HDF5_LSASAF_MSG_016-BRF_MSG-Disk_201608011215.h5',
 'data_msg/view-angle/ANG-20160801/HDF5_LSASAF_MSG_SAA_MSG-Disk_201608011215.h5',
 'data_msg/view-angle/ANG-20160801/HDF5_LSASAF_MSG_SZA_MSG-Disk_201608011215.h5',
 'data_msg/view-angle/HDF5_LSASAF_MSG_VAA_MSG-Disk_201601151200.h5',
 'data_msg/view-angle/HDF5_LSASAF_MSG_VZA_MSG-Disk_201601151200.h5',
 'data_msg/toc-lwcs/BRF-20160801/HDF5_LSASAF_MSG_006-BRF_MSG-Disk_201608011230.h5',
 'data_msg/toc-lwcs/BRF-20160801/HDF5_LSASAF_MSG_008-BRF_MSG-Disk_201608011230.h5',
 'data_msg/toc-lwcs/BRF-20160801/HDF5_LSASAF_MSG_016-BRF_MSG-Disk_201608011230.h5',
 'data_msg/view-angle/ANG-20160801/HDF5_LSASAF_MSG_SAA_MSG-Disk_201608011230.h5',
 'data_msg/view-angle/ANG-20160801/HDF5_LSASAF_MSG_SZA_MSG-Disk_201608011230.h5',
 'data_msg/view-angle/HDF5_LSASAF_MSG_VAA_MSG-Disk_201601151200.h5',
 'data_msg/view-angle/HDF5_LSASAF_MSG_VZA_MSG-Disk_201601151200.h5',
 'data_msg/toc-lwcs/BRF-20160801/HDF5_LSASAF_MSG_006-BRF_MSG-Disk_201608011245.h5',
 'data_msg/toc-lwcs/BRF-20160801/HDF5_LSASAF_MSG_008-BRF_MSG-Disk_201608011245.h5',
 'data_msg/toc-lwcs/BRF-20160801/HDF5_LSASAF_MSG_016-BRF_MSG-Disk_201608011245.h5',
 'data_msg/view-angle/ANG-20160801/HDF5_LSASAF_MSG_SAA_MSG-Disk_201608011245.h5',
 'data_msg/view-angle/ANG-20160801/HDF5_LSASAF_MSG_SZA_MSG-Disk_201608011245.h5',
 'data_msg/view-angle/HDF5_LSASAF_MSG_VAA_MSG-Disk_201601151200.h5',
 'data_msg/view-angle/HDF5_LSASAF_MSG_VZA_MSG-Disk_201601151200.h5',
 'data_msg/toc-lwcs/BRF-20160801/HDF5_LSASAF_MSG_006-BRF_MSG-Disk_201608011300.h5',
 'data_msg/toc-lwcs/BRF-20160801/HDF5_LSASAF_MSG_008-BRF_MSG-Disk_201608011300.h5',
 'data_msg/toc-lwcs/BRF-20160801/HDF5_LSASAF_MSG_016-BRF_MSG-Disk_201608011300.h5',
 'data_msg/view-angle/ANG-20160801/HDF5_LSASAF_MSG_SAA_MSG-Disk_201608011300.h5',
 'data_msg/view-angle/ANG-20160801/HDF5_LSASAF_MSG_SZA_MSG-Disk_201608011300.h5',
 'data_msg/view-angle/HDF5_LSASAF_MSG_VAA_MSG-Disk_201601151200.h5',
 'data_msg/view-angle/HDF5_LSASAF_MSG_VZA_MSG-Disk_201601151200.h5',
 'data_msg/toc-lwcs/BRF-20160801/HDF5_LSASAF_MSG_006-BRF_MSG-Disk_201608011315.h5',
 'data_msg/toc-lwcs/BRF-20160801/HDF5_LSASAF_MSG_008-BRF_MSG-Disk_201608011315.h5',